scratch/importTests/Owen-Bromley.glm
clock {
timezone PST+8PDT;
stoptime '2000-01-02 00:00:00';
starttime '2000-01-01 00:00:00';
};

#include "schedules.glm";
#set minimum_timestep=60;
#set profiler=1;
#set relax_naming_rules=1;
module generators;
module tape;
module climate;
module residential {
implicit_enduses NONE;
};

module powerflow {
solver_method NR;
NR_iteration_limit 50;
};

object climate {
name Climate;
interpolate QUADRATIC;
tmyfile climate.tmy2;
};

object node {
phases ABCN;
name BROMLEY;
bustype SWING;
nominal_voltage 7200.0;
};

object overhead_line {
phases ACBN;
from BROMLEY;
name 8370;
to node83698370;
length 25.0635;
configuration 5564line_configuration7701;
};

object overhead_line {
phases ACBN;
from node83698370;
name 8369;
to node682668369;
length 25.9559;
configuration 5564line_configuration7701;
};

object overhead_line {
phases ACBN;
from node682668369;
name 68266;
to node6826768266;
length 19.3343;
configuration 5564line_configuration7701;
};

object overhead_line {
phases ACBN;
from node682668369;
name 68264;
to node6826568264;
length 22.1567;
configuration 5564line_configuration7701;
};

object overhead_line {
phases ACBN;
from node682668369;
name 68262;
to node6826368262;
length 21.6901;
configuration 5564line_configuration7701;
};

object overhead_line {
phases ACBN;
from node6826368262;
name 68263;
to nodeR139868263;
length 25.5819;
configuration 5564line_configuration7701;
};

object fuse {
phases ACBN;
from nodeR139868263;
name R1398;
current_limit 9999.0 A;
to node8586R1398;
};

object overhead_line {
phases ACBN;
from node8586R1398;
name 8586;
to node85808586;
length 34.2101;
configuration 5564line_configuration7701;
};

object overhead_line {
phases ACBN;
from node85808586;
name 8580;
to node82588580;
length 108.402;
configuration 8194line_configuration1601;
};

object overhead_line {
phases ACBN;
from node82588580;
name 8258;
to node85408258;
length 106.998;
configuration 8194line_configuration1601;
};

object overhead_line {
phases ACBN;
from node85408258;
name 8540;
to node84948540;
length 131.126;
configuration 8194line_configuration1601;
};

object overhead_line {
phases ACBN;
from node84948540;
name 8494;
to node81958494;
length 131.563;
configuration 8194line_configuration1601;
};

object overhead_line_conductor {
resistance 0.203;
name 8494line_configuration1401overhead_line_conductor1405;
geometric_mean_radius 0.048;
};

object overhead_line {
phases ACBN;
from node81958494;
name 8195;
to node81948195;
length 106.214;
configuration 8194line_configuration1601;
};

object overhead_line {
phases ACBN;
from node81948195;
name 8194;
to node81858194;
length 180.078;
configuration 8194line_configuration1601;
};

object line_configuration {
name 8194line_configuration1601;
spacing 5108line_configuration61101line_spacing61102;
conductor_N 8494line_configuration1401overhead_line_conductor1405;
conductor_B 8494line_configuration1401overhead_line_conductor1405;
conductor_A 8494line_configuration1401overhead_line_conductor1405;
conductor_C 8494line_configuration1401overhead_line_conductor1405;
};

object overhead_line {
phases ACBN;
from node81858194;
name 8185;
to node83378185;
length 255.533;
configuration 5564line_configuration7701;
};

object overhead_line {
phases ACBN;
from node83378185;
name 8337;
to node82308337;
length 284.126;
configuration 5564line_configuration7701;
};

object overhead_line {
phases ACBN;
from node82308337;
name 8230;
to node73548230;
length 180.361;
configuration 5564line_configuration7701;
};

object overhead_line {
phases ACBN;
from node73548230;
name 7354;
to node81087354;
length 245.509;
configuration 5564line_configuration7701;
};

object overhead_line {
phases ACBN;
from node81087354;
name 8108;
to node80688108;
length 320.366;
configuration 5564line_configuration7701;
};

object overhead_line {
phases ACBN;
from node80688108;
name 8068;
to node79418068;
length 300.212;
configuration 5564line_configuration7701;
};

object overhead_line {
phases ACBN;
from node79418068;
name 7941;
to node74767941;
length 285.923;
configuration 5564line_configuration7701;
};

object overhead_line {
phases ACBN;
from node74767941;
name 7476;
to node77527476;
length 399.581;
configuration 5564line_configuration7701;
};

object overhead_line {
phases ACBN;
from node77527476;
name 7752;
to node77337752;
length 184.545;
configuration 5564line_configuration7701;
};

object overhead_line {
phases ACBN;
from node77337752;
name 7733;
to node73097733;
length 512.78;
configuration 5564line_configuration7701;
};

object overhead_line {
phases ACBN;
from node73097733;
name 7309;
to node72137309;
length 533.965;
configuration 5564line_configuration7701;
};

object overhead_line {
phases ACBN;
from node72137309;
name 7213;
to node75267213;
length 303.385;
configuration 5564line_configuration7701;
};

object overhead_line {
phases ACBN;
from node75267213;
name 7526;
to node65167526;
length 240.809;
configuration 5564line_configuration7701;
};

object overhead_line {
phases ACBN;
from node65167526;
name 6516;
to nodeT121752020386516;
length 257.081;
configuration 5564line_configuration7701;
};

object transformer {
phases CS;
from nodeT121752020386516;
name T12175202038;
to node12175202046T12175202038;
configuration T12113219607transformer_configuration98301;
};

object triplex_node {
phases CS;
power_12 100;
name 12175202046;
parent node12175202046T12175202038;
nominal_voltage 120;
};

object overhead_line {
phases ACBN;
from nodeT121752020386516;
name 7187;
to node71477187;
length 183.125;
configuration 5564line_configuration7701;
};

object overhead_line {
phases ACBN;
from node71477187;
name 7147;
to nodeT121752000677147;
length 168.042;
configuration 5564line_configuration7701;
};

object transformer {
phases CS;
from nodeT121752000677147;
name T12175200067;
to node12175200073T12175200067;
configuration T12113219607transformer_configuration98301;
};

object triplex_node {
phases CS;
power_12 1848.52;
name 12175200073;
parent node12175200073T12175200067;
nominal_voltage 120;
};

object overhead_line {
phases ACBN;
from nodeT121752000677147;
name 6977;
to node68466977;
length 390.474;
configuration 5564line_configuration7701;
};

object overhead_line {
phases ACBN;
from node68466977;
name 6846;
to node67136846;
length 434.375;
configuration 5564line_configuration7701;
};

object overhead_line {
phases ACBN;
from node67136846;
name 6713;
to node64756713;
length 452.545;
configuration 5564line_configuration7701;
};

object overhead_line {
phases ACBN;
from node64756713;
name 6475;
to node61476475;
length 444.672;
configuration 5564line_configuration7701;
};

object overhead_line {
phases ACBN;
from node61476475;
name 6147;
to nodeT121751901726147;
length 319.893;
configuration 5564line_configuration7701;
};

object transformer {
phases BS;
from nodeT121751901726147;
name T12175190172;
to node12175190010T12175190172;
configuration T12113219607transformer_configuration98301;
};

object triplex_node {
phases BS;
power_12 100;
name 12175190010;
parent node12175190010T12175190172;
nominal_voltage 120;
};

object overhead_line {
phases ACBN;
from nodeT121751901726147;
name 6348;
to nodeT121751882426348;
length 494.97;
configuration 5564line_configuration7701;
};

object transformer {
phases BS;
from nodeT121751882426348;
name T12175188242;
to node12175188268T12175188242;
configuration T12113219607transformer_configuration98301;
};

object triplex_node {
phases BS;
power_12 100;
name 12175188268;
parent node12175188268T12175188242;
nominal_voltage 120;
};

object overhead_line {
phases ACBN;
from nodeT121751882426348;
name 6263;
to node62626263;
length 133.552;
configuration 5564line_configuration7701;
};

object overhead_line {
phases ACBN;
from node62626263;
name 6262;
to node60296262;
length 196.269;
configuration 5564line_configuration7701;
};

object overhead_line {
phases ACBN;
from node60296262;
name 6029;
to node58226029;
length 313.199;
configuration 5564line_configuration7701;
};

object overhead_line {
phases ACBN;
from node58226029;
name 5822;
to node60915822;
length 105.836;
configuration 5564line_configuration7701;
};

object overhead_line_conductor {
resistance 0.303;
name 5822line_configuration5001overhead_line_conductor5005;
geometric_mean_radius 0.0221;
};

object overhead_line {
phases ACBN;
from node60915822;
name 6091;
to node57876091;
length 368.088;
configuration 5564line_configuration7701;
};

object overhead_line {
phases ACBN;
from node57876091;
name 5787;
to node59755787;
length 458.346;
configuration 5564line_configuration7701;
};

object overhead_line {
phases ACBN;
from node59755787;
name 5975;
to node59745975;
length 212.18;
configuration 5564line_configuration7701;
};

object overhead_line {
phases CN;
from node59745975;
name 5974;
to nodeF89275974;
length 25.0003;
configuration 6488line_configuration261501;
};

object fuse {
phases CN;
from nodeF89275974;
name F8927;
current_limit 9999.0 A;
to node5978F8927;
};

object overhead_line {
phases CN;
from node5978F8927;
name 5978;
to node59795978;
length 39.5511;
configuration 6488line_configuration261501;
};

object overhead_line {
phases CN;
from node59795978;
name 5979;
to nodeT121751804955979;
length 421.365;
configuration 6488line_configuration261501;
};

object transformer {
phases CS;
from nodeT121751804955979;
name T12175180495;
to node12175181551T12175180495;
configuration T12113219607transformer_configuration98301;
};

object triplex_node {
phases CS;
power_12 100;
name 12175181551;
parent node12175181551T12175180495;
nominal_voltage 120;
};

object overhead_line {
phases CN;
from nodeT121751804955979;
name 5781;
to node53685781;
length 226.652;
configuration 6488line_configuration261501;
};

object overhead_line {
phases CN;
from node53685781;
name 5368;
to nodeT121751816855368;
length 212.364;
configuration 6488line_configuration261501;
};

object transformer {
phases CS;
from nodeT121751816855368;
name T12175181685;
to node12175182615T12175181685;
configuration T12113219607transformer_configuration98301;
};

object triplex_node {
phases CS;
power_12 129.609;
name 12175182615;
parent node12175182615T12175181685;
nominal_voltage 120;
};

object overhead_line {
phases ACBN;
from node59745975;
name 5926;
to node58815926;
length 335.407;
configuration 5564line_configuration7701;
};

object overhead_line {
phases ACBN;
from node58815926;
name 5881;
to nodeT121742372015881;
length 275.923;
configuration 5564line_configuration7701;
};

object transformer {
phases CS;
from nodeT121742372015881;
name T12174237201;
to node12174236245T12174237201;
configuration T12113219607transformer_configuration98301;
};

object triplex_node {
phases CS;
power_12 1833.65;
name 12174236245;
parent node12174236245T12174237201;
nominal_voltage 120;
};

object triplex_node {
phases CS;
power_12 998.625;
name 12174237119;
parent node12174236245T12174237201;
nominal_voltage 120;
};

object overhead_line {
phases ACBN;
from nodeT121742372015881;
name 5832;
to node57555832;
length 298.87;
configuration 5564line_configuration7701;
};

object overhead_line {
phases ACBN;
from node57555832;
name 5755;
to node48895755;
length 369.369;
configuration 5564line_configuration7701;
};

object overhead_line {
phases ACBN;
from node48895755;
name 4889;
to nodeT121742321844889;
length 191.945;
configuration 5564line_configuration7701;
};

object transformer {
phases CS;
from nodeT121742321844889;
name T12174232184;
to node12174232273T12174232184;
configuration T12113219607transformer_configuration98301;
};

object triplex_node {
phases CS;
power_12 225.222;
name 12174232273;
parent node12174232273T12174232184;
nominal_voltage 120;
};

object overhead_line {
phases ACBN;
from nodeT121742321844889;
name 5565;
to nodeSW1082-Bx15565;
length 18.1269;
configuration 5564line_configuration7701;
};

object switch {
status CLOSED;
phases ACBN;
from nodeSW1082-Bx15565;
name SW1082-Bx1;
to nodeSW1082-Ax1SW1082-Bx1;
};

object switch {
status CLOSED;
phases ACBN;
from nodeSW1082-Ax1SW1082-Bx1;
name SW1082-Ax1;
to node5564SW1082-Ax1;
};

object overhead_line {
phases ACBN;
from node5564SW1082-Ax1;
name 5564;
to node55495564;
length 218.97;
configuration 5564line_configuration7701;
};

object line_configuration {
name 5564line_configuration7701;
spacing 5108line_configuration61101line_spacing61102;
conductor_N 5822line_configuration5001overhead_line_conductor5005;
conductor_A 5822line_configuration5001overhead_line_conductor5005;
conductor_C 5822line_configuration5001overhead_line_conductor5005;
conductor_B 5822line_configuration5001overhead_line_conductor5005;
};

object overhead_line {
phases BN;
from node55495564;
name 5549;
to node675305549;
length 82.4509;
configuration 2918line_configuration22401;
};

object overhead_line {
phases BN;
from node675305549;
name 67530;
to nodeR100467530;
length 11.6163;
configuration 2918line_configuration22401;
};

object fuse {
phases BN;
from nodeR100467530;
name R1004;
current_limit 9999.0 A;
to node67531R1004;
};

object overhead_line {
phases BN;
from node67531R1004;
name 67531;
to node554667531;
length 12.5072;
configuration 2918line_configuration22401;
};

object overhead_line {
phases BN;
from node554667531;
name 5546;
to nodeSW1506-Ax15546;
length 14.5006;
configuration 2918line_configuration22401;
};

object overhead_line {
phases BN;
from node554667531;
name 4632;
to node46254632;
length 147.394;
configuration 2918line_configuration22401;
};

object overhead_line {
phases BN;
from node46254632;
name 4625;
to nodeT121742302304625;
length 266.061;
configuration 2808line_configuration163701;
};

object transformer {
phases BS;
from nodeT121742302304625;
name T12174230230;
to node12174230251T12174230230;
configuration T12113219607transformer_configuration98301;
};

object triplex_node {
phases BS;
power_12 100;
name 12174230251;
parent node12174230251T12174230230;
nominal_voltage 120;
};

object overhead_line {
phases BN;
from node46254632;
name 4880;
to nodeT121580489784880;
length 397.075;
configuration 2918line_configuration22401;
};

object transformer {
phases BS;
from nodeT121580489784880;
to node12174228031T12158048978;
configuration T12113219607transformer_configuration98301;
name T12158048978;
};

object triplex_node {
phases BS;
power_12 100;
name 12174228031;
parent node12174228031T12158048978;
nominal_voltage 120;
};

object overhead_line {
phases BN;
from nodeT121580489784880;
name 5723;
to node57045723;
length 175.384;
configuration 2918line_configuration22401;
};

object overhead_line {
phases BN;
from node57045723;
name 5704;
to node56825704;
length 242.298;
configuration 2918line_configuration22401;
};

object overhead_line {
phases BN;
from node56825704;
name 5682;
to node53205682;
length 400.419;
configuration 2918line_configuration22401;
};

object overhead_line {
phases BN;
from node53205682;
name 5320;
to node56295320;
length 418.414;
configuration 2918line_configuration22401;
};

object overhead_line {
phases BN;
from node56295320;
name 5629;
to node55955629;
length 514.021;
configuration 2918line_configuration22401;
};

object overhead_line {
phases BN;
from node55955629;
name 5595;
to node55255595;
length 369.582;
configuration 2918line_configuration22401;
};

object overhead_line {
phases BN;
from node55255595;
name 5525;
to node54915525;
length 389.151;
configuration 2918line_configuration22401;
};

object overhead_line {
phases BN;
from node54915525;
name 5491;
to node54545491;
length 547.945;
configuration 2918line_configuration22401;
};

object overhead_line {
phases BN;
from node54545491;
name 5454;
to node54555454;
length 412.864;
configuration 2918line_configuration22401;
};

object overhead_line {
phases BN;
from node54555454;
name 5455;
to node54585455;
length 343.906;
configuration 2918line_configuration22401;
};

object overhead_line {
phases BN;
from node54585455;
name 5458;
to node54605458;
length 358.492;
configuration 2918line_configuration22401;
};

object overhead_line {
phases BN;
from node54605458;
name 5460;
to node54625460;
length 365.819;
configuration 2918line_configuration22401;
};

object overhead_line {
phases BN;
from node54625460;
name 5462;
to node54655462;
length 362.181;
configuration 2918line_configuration22401;
};

object overhead_line {
phases BN;
from node54655462;
name 5465;
to node54685465;
length 390.634;
configuration 2918line_configuration22401;
};

object overhead_line {
phases BN;
from node54685465;
name 5468;
to node54855468;
length 621.703;
configuration 2918line_configuration22401;
};

object overhead_line {
phases BN;
from node54855468;
name 5485;
to node54955485;
length 363.053;
configuration 2918line_configuration22401;
};

object overhead_line {
phases BN;
from node54955485;
name 5495;
to node55005495;
length 204.09;
configuration 2918line_configuration22401;
};

object overhead_line {
phases BN;
from node55005495;
name 5500;
to node54665500;
length 327.002;
configuration 2918line_configuration22401;
};

object overhead_line {
phases BN;
from node54665500;
name 5466;
to node54315466;
length 474.137;
configuration 2918line_configuration22401;
};

object overhead_line {
phases BN;
from node54315466;
name 5431;
to node53815431;
length 530.182;
configuration 2918line_configuration22401;
};

object overhead_line {
phases BN;
from node53815431;
name 5381;
to node52545381;
length 485.572;
configuration 2918line_configuration22401;
};

object overhead_line {
phases BN;
from node52545381;
name 5254;
to node51805254;
length 579.535;
configuration 2918line_configuration22401;
};

object overhead_line {
phases BN;
from node51805254;
name 5180;
to node51235180;
length 652.372;
configuration 2918line_configuration22401;
};

object overhead_line {
phases BN;
from node51235180;
name 5123;
to node49825123;
length 537.963;
configuration 2918line_configuration22401;
};

object overhead_line {
phases BN;
from node49825123;
name 4982;
to node45944982;
length 465.418;
configuration 2918line_configuration22401;
};

object overhead_line {
phases BN;
from node45944982;
name 4594;
to node39774594;
length 289.639;
configuration 2918line_configuration22401;
};

object overhead_line {
phases BN;
from node39774594;
name 3977;
to node39473977;
length 25.0001;
configuration 2918line_configuration22401;
};

object overhead_line {
phases BN;
from node39473977;
name 3947;
to node50733947;
length 160.371;
configuration 2918line_configuration22401;
};

object overhead_line {
phases BN;
from node50733947;
name 5073;
to node50585073;
length 577.916;
configuration 2918line_configuration22401;
};

object overhead_line {
phases BN;
from node50585073;
name 5058;
to node50525058;
length 185.862;
configuration 2918line_configuration22401;
};

object overhead_line {
phases BN;
from node50525058;
name 5052;
to nodeT121741295785052;
length 226.176;
configuration 2808line_configuration163701;
};

object transformer {
phases BS;
from nodeT121741295785052;
name T12174129578;
to node12174129601T12174129578;
configuration T12113219607transformer_configuration98301;
};

object triplex_node {
phases BS;
power_12 100;
name 12174129601;
parent node12174129601T12174129578;
nominal_voltage 120;
};

object overhead_line {
phases BN;
from nodeT121741295785052;
name 5029;
to nodeF59935029;
length 19.4364;
configuration 2808line_configuration163701;
};

object fuse {
phases BN;
from nodeF59935029;
name F5993;
current_limit 9999.0 A;
to node5028F5993;
};

object overhead_line {
phases BN;
from node5028F5993;
name 5028;
to node48365028;
length 315.68;
configuration 2808line_configuration163701;
};

object overhead_line {
phases BN;
from node48365028;
name 4836;
to node48234836;
length 352.252;
configuration 2808line_configuration163701;
};

object overhead_line {
phases BN;
from node48234836;
name 4823;
to node47044823;
length 325.745;
configuration 2808line_configuration163701;
};

object overhead_line {
phases BN;
from node47044823;
name 4704;
to node45524704;
length 204.042;
configuration 2808line_configuration163701;
};

object overhead_line {
phases BN;
from node45524704;
name 4552;
to nodeT121741224514552;
length 304.761;
configuration 2808line_configuration163701;
};

object transformer {
phases BS;
from nodeT121741224514552;
name T12174122451;
to node12174122374T12174122451;
configuration T12113219607transformer_configuration98301;
};

object triplex_node {
phases BS;
power_12 100;
name 12174122374;
parent node12174122374T12174122451;
nominal_voltage 120;
};

object overhead_line {
phases BN;
from nodeT121741224514552;
name 4645;
to node48024645;
length 285.432;
configuration 2808line_configuration163701;
};

object overhead_line {
phases BN;
from node48024645;
name 4802;
to nodeT121741203304802;
length 203.354;
configuration 2808line_configuration163701;
};

object transformer {
phases BS;
from nodeT121741203304802;
name T12174120330;
to node12173179254T12174120330;
configuration T12113219607transformer_configuration98301;
};

object triplex_node {
phases BS;
power_12 100;
name 12173179254;
parent node12173179254T12174120330;
nominal_voltage 120;
};

object overhead_line {
phases BN;
from node48365028;
name 5016;
to nodeT121741274785016;
length 114;
configuration 2808line_configuration163701;
};

object transformer {
phases BS;
from nodeT121741274785016;
name T12174127478;
to node12174127474T12174127478;
configuration T12113219607transformer_configuration98301;
};

object triplex_node {
phases BS;
power_12 100;
name 12174127474;
parent node12174127474T12174127478;
nominal_voltage 120;
};

object overhead_line {
phases BN;
from node50525058;
name 5025;
to node44105025;
length 337.077;
configuration 2918line_configuration22401;
};

object overhead_line {
phases BN;
from node44105025;
name 4410;
to node47004410;
length 517.9;
configuration 2918line_configuration22401;
};

object overhead_line {
phases BN;
from node47004410;
name 4700;
to node47854700;
length 386.627;
configuration 2918line_configuration22401;
};

object overhead_line {
phases BN;
from node47854700;
name 4785;
to node39674785;
length 843.291;
configuration 2918line_configuration22401;
};

object overhead_line {
phases BN;
from node39674785;
name 3967;
to node40123967;
length 806.924;
configuration 2918line_configuration22401;
};

object overhead_line {
phases BN;
from node40123967;
name 4012;
to node45044012;
length 696.314;
configuration 2918line_configuration22401;
};

object overhead_line {
phases BN;
from node45044012;
name 4504;
to node44814504;
length 290.228;
configuration 2918line_configuration22401;
};

object overhead_line {
phases BN;
from node44814504;
name 4481;
to node44824481;
length 361.934;
configuration 2918line_configuration22401;
};

object overhead_line {
phases BN;
from node44824481;
name 4482;
to node44864482;
length 506.089;
configuration 2808line_configuration163701;
};

object overhead_line {
phases BN;
from node44864482;
name 4486;
to node44914486;
length 447.306;
configuration 2808line_configuration163701;
};

object overhead_line {
phases BN;
from node44914486;
name 4491;
to node44944491;
length 162.822;
configuration 2808line_configuration163701;
};

object overhead_line {
phases BN;
from node44944491;
name 4494;
to node45074494;
length 171.391;
configuration 2808line_configuration163701;
};

object overhead_line {
phases BN;
from node45074494;
name 4507;
to node45064507;
length 150.942;
configuration 2808line_configuration163701;
};

object overhead_line {
phases BN;
from node45064507;
name 4506;
to node45054506;
length 70.6861;
configuration 2808line_configuration163701;
};

object overhead_line {
phases BN;
from node45054506;
name 4505;
to node45194505;
length 225.899;
configuration 2808line_configuration163701;
};

object overhead_line {
phases BN;
from node45194505;
name 4519;
to node45204519;
length 298.188;
configuration 2808line_configuration163701;
};

object overhead_line {
phases BN;
from node45204519;
name 4520;
to node45174520;
length 214.276;
configuration 2808line_configuration163701;
};

object overhead_line {
phases BN;
from node45174520;
name 4517;
to node45164517;
length 186.14;
configuration 2808line_configuration163701;
};

object overhead_line {
phases BN;
from node45164517;
name 4516;
to node45184516;
length 190.01;
configuration 2808line_configuration163701;
};

object overhead_line {
phases BN;
from node45184516;
name 4518;
to nodeT121731721204518;
length 195.969;
configuration 2808line_configuration163701;
};

object transformer {
phases BS;
from nodeT121731721204518;
name T12173172120;
to node12173172049T12173172120;
configuration T12113219607transformer_configuration98301;
};

object triplex_node {
phases BS;
power_12 100;
name 12173172049;
parent node12173172049T12173172120;
nominal_voltage 120;
};

object overhead_line {
phases BN;
from node44824481;
name 4451;
to node39464451;
length 344.769;
configuration 2918line_configuration22401;
};

object overhead_line {
phases BN;
from node39464451;
name 3946;
to node42533946;
length 428.354;
configuration 2918line_configuration22401;
};

object overhead_line {
phases BN;
from node42533946;
name 4253;
to nodeT121731035944253;
length 441.465;
configuration 2918line_configuration22401;
};

object transformer {
phases BS;
from nodeT121731035944253;
name T12173103594;
to node12173103586T12173103594;
configuration T12113219607transformer_configuration98301;
};

object triplex_node {
phases BS;
power_12 100;
name 12173103586;
parent node12173103586T12173103594;
nominal_voltage 120;
};

object overhead_line {
phases BN;
from nodeT121731035944253;
name 4224;
to nodeT121731026584224;
length 391.629;
configuration 2918line_configuration22401;
};

object transformer {
phases BS;
from nodeT121731026584224;
name T12173102658;
to node12173102586T12173102658;
configuration T12113219607transformer_configuration98301;
};

object triplex_node {
phases BS;
power_12 100;
name 12173102586;
parent node12173102586T12173102658;
nominal_voltage 120;
};

object overhead_line {
phases BN;
from nodeT121731026584224;
name 3609;
to nodeF89333609;
length 19.0559;
configuration 2808line_configuration163701;
};

object fuse {
phases BN;
from nodeF89333609;
name F8933;
current_limit 9999.0 A;
to node3610F8933;
};

object overhead_line {
phases BN;
from node3610F8933;
name 3610;
to node43743610;
length 281.883;
configuration 2808line_configuration163701;
};

object overhead_line {
phases BN;
from node43743610;
name 4374;
to node43524374;
length 356.059;
configuration 2808line_configuration163701;
};

object overhead_line {
phases BN;
from node43524374;
name 4352;
to node42834352;
length 309.921;
configuration 2808line_configuration163701;
};

object overhead_line {
phases BN;
from node42834352;
name 4283;
to node35934283;
length 441.06;
configuration 2808line_configuration163701;
};

object overhead_line {
phases BN;
from node35934283;
name 3593;
to node41943593;
length 449.988;
configuration 2808line_configuration163701;
};

object overhead_line {
phases BN;
from node41943593;
name 4194;
to node41684194;
length 362.992;
configuration 2808line_configuration163701;
};

object overhead_line {
phases BN;
from node41684194;
name 4168;
to nodeT121730912384168;
length 329.972;
configuration 2808line_configuration163701;
};

object transformer {
phases BS;
from nodeT121730912384168;
name T12173091238;
to node12173091217T12173091238;
configuration T12113219607transformer_configuration98301;
};

object triplex_node {
phases BS;
power_12 100;
name 12173091217;
parent node12173091217T12173091238;
nominal_voltage 120;
};

object overhead_line {
phases BN;
from nodeT121731026584224;
name 3606;
to node43733606;
length 359.866;
configuration 2918line_configuration22401;
};

object overhead_line {
phases BN;
from node43733606;
name 4373;
to node41144373;
length 400.46;
configuration 2918line_configuration22401;
};

object overhead_line {
phases BN;
from node41144373;
name 4114;
to node43444114;
length 365.898;
configuration 2918line_configuration22401;
};

object overhead_line {
phases BN;
from node43444114;
name 4344;
to node43324344;
length 307.351;
configuration 2918line_configuration22401;
};

object overhead_line {
phases BN;
from node43324344;
name 4332;
to nodeT121730373864332;
length 250.984;
configuration 2918line_configuration22401;
};

object overhead_line {
phases BN;
from nodeT121730373864332;
name 4304;
to node42934304;
length 333.421;
configuration 2918line_configuration22401;
};

object overhead_line {
phases BN;
from node42934304;
name 4293;
to node40054293;
length 297.931;
configuration 2918line_configuration22401;
};

object overhead_line {
phases BN;
from node40054293;
name 4005;
to node39934005;
length 380.607;
configuration 2918line_configuration22401;
};

object overhead_line {
phases BN;
from node39934005;
name 3993;
to nodeT121730359703993;
length 158.299;
configuration 2918line_configuration22401;
};

object transformer {
phases BS;
from nodeT121730359703993;
name T12173035970;
to node12173035983T12173035970;
configuration T12113219607transformer_configuration98301;
};

object triplex_node {
phases BS;
power_12 100;
name 12173035983;
parent node12173035983T12173035970;
nominal_voltage 120;
};

object overhead_line {
phases BN;
from nodeT121730359703993;
name 3983;
to node574643983;
length 296.054;
configuration 2918line_configuration22401;
};

object underground_line {
phases BN;
from node574643983;
name 57464;
to nodeF837357464;
length 19.116;
configuration 57500line_configuration228001;
};

object fuse {
phases B;
from nodeF837357464;
name F8373;
current_limit 9999.0 A;
to node57465F8373;
};

object underground_line {
phases B;
from node57465F8373;
name 57465;
to node5746357465;
length 780.934;
configuration 57500line_configuration228001;
};

object underground_line {
phases B;
from node5746357465;
name 57463;
to node5745757463;
length 700;
configuration 57500line_configuration228001;
};

object underground_line {
phases B;
from node5745757463;
name 57457;
to nodeT1217302852357457;
length 500;
configuration 57500line_configuration228001;
};

object transformer {
phases BS;
from nodeT1217302852357457;
name T12173028523;
to node12173028551T12173028523;
configuration T12113219607transformer_configuration98301;
};

object triplex_node {
phases BS;
power_12 100;
name 12173028551;
parent node12173028551T12173028523;
nominal_voltage 120;
};

object overhead_line {
phases BN;
from node574643983;
name 4266;
to node34524266;
length 421.28;
configuration 2918line_configuration22401;
};

object overhead_line {
phases BN;
from node34524266;
name 3452;
to node42033452;
length 402.443;
configuration 2918line_configuration22401;
};

object overhead_line {
phases BN;
from node42033452;
name 4203;
to node41784203;
length 391.543;
configuration 2918line_configuration22401;
};

object overhead_line {
phases BN;
from node41784203;
name 4178;
to node41004178;
length 548.177;
configuration 2918line_configuration22401;
};

object overhead_line {
phases BN;
from node41004178;
name 4100;
to node40424100;
length 448.409;
configuration 2918line_configuration22401;
};

object overhead_line {
phases BN;
from node40424100;
name 4042;
to node38694042;
length 558.753;
configuration 2918line_configuration22401;
};

object overhead_line {
phases BN;
from node38694042;
name 3869;
to node38363869;
length 474.718;
configuration 2918line_configuration22401;
};

object overhead_line {
phases BN;
from node38363869;
name 3836;
to node38073836;
length 301.988;
configuration 2918line_configuration22401;
};

object overhead_line {
phases BN;
from node38073836;
name 3807;
to node37733807;
length 347.949;
configuration 2918line_configuration22401;
};

object overhead_line {
phases BN;
from node37733807;
name 3773;
to node37293773;
length 450.812;
configuration 2918line_configuration22401;
};

object overhead_line {
phases BN;
from node37293773;
name 3729;
to node34903729;
length 347.699;
configuration 2918line_configuration22401;
};

object overhead_line {
phases BN;
from node34903729;
name 3490;
to node33213490;
length 452.191;
configuration 2918line_configuration22401;
};

object overhead_line {
phases BN;
from node33213490;
name 3321;
to node35533321;
length 467.676;
configuration 2918line_configuration22401;
};

object overhead_line {
phases BN;
from node35533321;
name 3553;
to node32863553;
length 307.472;
configuration 2918line_configuration22401;
};

object overhead_line {
phases BN;
from node32863553;
name 3286;
to node36813286;
length 440.778;
configuration 2918line_configuration22401;
};

object overhead_line {
phases BN;
from node36813286;
name 3681;
to node30703681;
length 468.134;
configuration 2918line_configuration22401;
};

object overhead_line {
phases BN;
from node30703681;
name 3070;
to node31663070;
length 426.738;
configuration 2918line_configuration22401;
};

object overhead_line {
phases BN;
from node31663070;
name 3166;
to node28343166;
length 359.134;
configuration 2918line_configuration22401;
};

object overhead_line {
phases BN;
from node28343166;
name 2834;
to node33442834;
length 356.982;
configuration 2918line_configuration22401;
};

object overhead_line {
phases BN;
from node33442834;
name 3344;
to node32113344;
length 621.672;
configuration 2918line_configuration22401;
};

object overhead_line {
phases BN;
from node32113344;
name 3211;
to node28003211;
length 327.495;
configuration 2918line_configuration22401;
};

object overhead_line {
phases BN;
from node28003211;
name 2800;
to node29672800;
length 441.988;
configuration 2918line_configuration22401;
};

object overhead_line {
phases BN;
from node29672800;
name 2967;
to node29182967;
length 949.617;
configuration 2918line_configuration22401;
};

object overhead_line {
phases BN;
from node29182967;
name 2918;
to node28832918;
length 438.642;
configuration 2918line_configuration22401;
};

object line_configuration {
name 2918line_configuration22401;
spacing 5108line_configuration61101line_spacing61102;
conductor_N 71774line_configuration180201overhead_line_conductor180205;
conductor_B 71774line_configuration180201overhead_line_conductor180205;
conductor_A 7261line_configuration267601overhead_line_conductor267605;
conductor_C 7261line_configuration267601overhead_line_conductor267605;
};

object overhead_line {
phases BN;
from node28343166;
name 3167;
to node31103167;
length 559.63;
configuration 2808line_configuration163701;
};

object overhead_line {
phases BN;
from node31103167;
name 3110;
to node34243110;
length 363.89;
configuration 2808line_configuration163701;
};

object overhead_line {
phases BN;
from node34243110;
name 3424;
to node34263424;
length 500.847;
configuration 2808line_configuration163701;
};

object overhead_line {
phases BN;
from node34263424;
name 3426;
to node34273426;
length 481.589;
configuration 2808line_configuration163701;
};

object overhead_line {
phases BN;
from node34273426;
name 3427;
to node34253427;
length 433.3;
configuration 2808line_configuration163701;
};

object overhead_line {
phases BN;
from node34253427;
name 3425;
to node34223425;
length 461.182;
configuration 2808line_configuration163701;
};

object overhead_line {
phases BN;
from node34223425;
name 3422;
to nodeT121730033043422;
length 431.331;
configuration 2808line_configuration163701;
};

object transformer {
phases BS;
from nodeT121730033043422;
to node12173003320T12173003304;
configuration T12113219607transformer_configuration98301;
name T12173003304;
};

object triplex_node {
phases BS;
power_12 100;
name 12173003320;
parent node12173003320T12173003304;
nominal_voltage 120;
};

object overhead_line {
phases BN;
from nodeT121730033043422;
name 67968;
to nodeR133667968;
length 10.4377;
configuration 2808line_configuration163701;
};

object fuse {
phases BN;
from nodeR133667968;
name R1336;
current_limit 9999.0 A;
to node67969R1336;
};

object overhead_line {
phases BN;
from node67969R1336;
name 67969;
to node317167969;
length 14.5625;
configuration 2808line_configuration163701;
};

object overhead_line {
phases BN;
from node317167969;
name 3171;
to nodeSW1537-Bx13171;
length 24.0518;
configuration 2808line_configuration163701;
};

object overhead_line {
phases BN;
from node317167969;
name 3109;
to nodeT121730021973109;
length 310.355;
configuration 2808line_configuration163701;
};

object transformer {
phases BS;
from nodeT121730021973109;
to node12173002164T12173002197;
configuration T12113219607transformer_configuration98301;
name T12173002197;
};

object triplex_node {
phases BS;
power_12 100;
name 12173002164;
parent node12173002164T12173002197;
nominal_voltage 120;
};

object overhead_line {
phases BN;
from nodeT121730021973109;
name 3172;
to node31653172;
length 354.781;
configuration 2808line_configuration163701;
};

object overhead_line {
phases BN;
from node31653172;
name 3165;
to node31583165;
length 673.489;
configuration 2808line_configuration163701;
};

object overhead_line {
phases BN;
from node31583165;
name 3158;
to node30983158;
length 507.084;
configuration 2808line_configuration163701;
};

object overhead_line {
phases BN;
from node30983158;
name 3098;
to node30973098;
length 465.081;
configuration 2808line_configuration163701;
};

object overhead_line {
phases BN;
from node30973098;
name 3097;
to nodeT121730602953097;
length 225;
configuration 2808line_configuration163701;
};

object transformer {
phases BS;
from nodeT121730602953097;
name T12173060295;
to node12173060273T12173060295;
configuration T12113219607transformer_configuration98301;
};

object triplex_node {
phases BS;
power_12 100;
name 12173060273;
parent node12173060273T12173060295;
nominal_voltage 120;
};

object overhead_line {
phases BN;
from node30973098;
name 3052;
to nodeT121730603153052;
length 65.1858;
configuration 2808line_configuration163701;
};

object transformer {
phases BS;
from nodeT121730603153052;
name T12173060315;
to node12173060303T12173060315;
configuration T12113219607transformer_configuration98301;
};

object triplex_node {
phases BS;
power_12 100;
name 12173060303;
parent node12173060303T12173060315;
nominal_voltage 120;
};

object overhead_line {
phases BN;
from nodeT121730603153052;
name 3395;
to node33673395;
length 422.973;
configuration 2808line_configuration163701;
};

object overhead_line {
phases BN;
from node33673395;
name 3367;
to node33563367;
length 288.006;
configuration 2808line_configuration163701;
};

object overhead_line {
phases BN;
from node33563367;
name 3356;
to nodeT121721188053356;
length 384;
configuration 2808line_configuration163701;
};

object transformer {
phases BS;
from nodeT121721188053356;
name T12172118805;
to node12172118932T12172118805;
configuration T12113219607transformer_configuration98301;
};

object triplex_node {
phases BS;
power_12 100;
name 12172118932;
parent node12172118932T12172118805;
nominal_voltage 120;
};

object overhead_line {
phases BN;
from node33563367;
name 3247;
to nodeT121721176423247;
length 217.97;
configuration 2808line_configuration163701;
};

object transformer {
phases BS;
from nodeT121721176423247;
name T12172117642;
to node12172116686T12172117642;
configuration T12113219607transformer_configuration98301;
};

object triplex_node {
phases BS;
power_12 100;
name 12172116686;
parent node12172116686T12172117642;
nominal_voltage 120;
};

object overhead_line {
phases BN;
from node30983158;
name 3153;
to node30343153;
length 766.409;
configuration 2808line_configuration163701;
};

object overhead_line {
phases BN;
from node30343153;
name 3034;
to nodeT121731217673034;
length 533.099;
configuration 2808line_configuration163701;
};

object transformer {
phases BS;
from nodeT121731217673034;
name T12173121767;
to node12173121842T12173121767;
configuration T12113219607transformer_configuration98301;
};

object triplex_node {
phases BS;
power_12 100;
name 12173121842;
parent node12173121842T12173121767;
nominal_voltage 120;
};

object overhead_line {
phases BN;
from nodeT121731217673034;
name 3105;
to node30513105;
length 531.062;
configuration 2808line_configuration163701;
};

object overhead_line {
phases BN;
from node30513105;
name 3051;
to node33973051;
length 345.683;
configuration 2808line_configuration163701;
};

object overhead_line {
phases BN;
from node33973051;
name 3397;
to node33893397;
length 482.168;
configuration 2808line_configuration163701;
};

object overhead_line {
phases BN;
from node33893397;
name 3389;
to nodeT121721780973389;
length 148.015;
configuration 2808line_configuration163701;
};

object transformer {
phases BS;
from nodeT121721780973389;
name T12172178097;
to node12172179053T12172178097;
configuration T12113219607transformer_configuration98301;
};

object triplex_node {
phases BS;
power_12 100;
name 12172179053;
parent node12172179053T12172178097;
nominal_voltage 120;
};

object overhead_line {
phases BN;
from nodeT121721780973389;
name 3364;
to nodeT121722388393364;
length 375.159;
configuration 2808line_configuration163701;
};

object transformer {
phases BS;
from nodeT121722388393364;
name T12172238839;
to node12172238911T12172238839;
configuration T12113219607transformer_configuration98301;
};

object triplex_node {
phases BS;
power_12 100;
name 12172238911;
parent node12172238911T12172238839;
nominal_voltage 120;
};

object overhead_line {
phases BN;
from nodeT121722388393364;
name 3339;
to nodeT121722377863339;
length 286.598;
configuration 2808line_configuration163701;
};

object transformer {
phases BS;
from nodeT121722377863339;
name T12172237786;
to node12172237754T12172237786;
configuration T12113219607transformer_configuration98301;
};

object triplex_node {
phases BS;
power_12 100;
name 12172237754;
parent node12172237754T12172237786;
nominal_voltage 120;
};

object overhead_line {
phases BN;
from nodeT121722377863339;
name 3242;
to nodeT121722376323242;
length 283.573;
configuration 2808line_configuration163701;
};

object transformer {
phases BS;
from nodeT121722376323242;
name T12172237632;
to node12172237529T12172237632;
configuration T12113219607transformer_configuration98301;
};

object triplex_node {
phases BS;
power_12 100;
name 12172237529;
parent node12172237529T12172237632;
nominal_voltage 120;
};

object overhead_line {
phases BN;
from nodeT121730021973109;
name 3108;
to node30683108;
length 334.82;
configuration 2808line_configuration163701;
};

object overhead_line {
phases BN;
from node30683108;
name 3068;
to node36783068;
length 425.644;
configuration 2808line_configuration163701;
};

object overhead_line {
phases BN;
from node36783068;
name 3678;
to node32633678;
length 329.768;
configuration 2808line_configuration163701;
};

object overhead_line {
phases BN;
from node32633678;
name 3263;
to node32873263;
length 237;
configuration 2808line_configuration163701;
};

object overhead_line {
phases BN;
from node32873263;
name 3287;
to node35333287;
length 372;
configuration 2808line_configuration163701;
};

object overhead_line {
phases BN;
from node35333287;
name 3533;
to node32963533;
length 234;
configuration 2808line_configuration163701;
};

object overhead_line {
phases BN;
from node32963533;
name 3296;
to node33073296;
length 148;
configuration 2808line_configuration163701;
};

object overhead_line {
phases BN;
from node33073296;
name 3307;
to node33183307;
length 123;
configuration 2808line_configuration163701;
};

object overhead_line {
phases BN;
from node33183307;
name 3318;
to nodeT121730134963318;
length 261;
configuration 2808line_configuration163701;
};

object transformer {
phases BS;
from nodeT121730134963318;
to node12173014405T12173013496;
configuration T12113219607transformer_configuration98301;
name T12173013496;
};

object triplex_node {
phases BS;
power_12 100;
name 12173014405;
parent node12173014405T12173013496;
nominal_voltage 120;
};

object overhead_line {
phases BN;
from node32633678;
name 3679;
to nodeT121730080583679;
length 36.2321;
configuration 2808line_configuration163701;
};

object transformer {
phases BS;
from nodeT121730080583679;
name T12173008058;
to node12173008074T12173008058;
configuration T12113219607transformer_configuration98301;
};

object triplex_node {
phases BS;
power_12 100;
name 12173008074;
parent node12173008074T12173008058;
nominal_voltage 120;
};

object overhead_line {
phases BN;
from nodeT121730033043422;
name 3170;
to node31693170;
length 24.4431;
configuration 2808line_configuration163701;
};

object overhead_line {
phases BN;
from node31693170;
name 3169;
to nodeSW1537-Ax13169;
length 15.8171;
configuration 2808line_configuration163701;
};

object overhead_line {
phases BN;
from node41004178;
name 4167;
to node41664167;
length 402.398;
configuration 2808line_configuration163701;
};

object overhead_line {
phases BN;
from node41664167;
name 4166;
to nodeT121922129844166;
length 395.716;
configuration 2808line_configuration163701;
};

object transformer {
phases BS;
from nodeT121922129844166;
name T12192212984;
to node12192213925T12192212984;
configuration T12113219607transformer_configuration98301;
};

object triplex_node {
phases BS;
power_12 100;
name 12192213925;
parent node12192213925T12192212984;
nominal_voltage 120;
};

object overhead_line {
phases BN;
from nodeT121922129844166;
name 4198;
to node35894198;
length 312.876;
configuration 2808line_configuration163701;
};

object overhead_line {
phases BN;
from node35894198;
name 3589;
to node42783589;
length 223.018;
configuration 2808line_configuration163701;
};

object overhead_line {
phases BN;
from node42783589;
name 4278;
to nodeT121922167014278;
length 243.047;
configuration 2808line_configuration163701;
};

object transformer {
phases BS;
from nodeT121922167014278;
name T12192216701;
to node12192216732T12192216701;
configuration T12113219607transformer_configuration98301;
};

object triplex_node {
phases BS;
power_12 100;
name 12192216732;
parent node12192216732T12192216701;
nominal_voltage 120;
};

object overhead_line {
phases BN;
from nodeT121922167014278;
name 4004;
to node43014004;
length 389.966;
configuration 2808line_configuration163701;
};

object overhead_line {
phases BN;
from node43014004;
name 4301;
to nodeT121922173124301;
length 459.007;
configuration 2808line_configuration163701;
};

object transformer {
phases BS;
from nodeT121922173124301;
name T12192217312;
to node12192217238T12192217312;
configuration T12113219607transformer_configuration98301;
};

object triplex_node {
phases BS;
power_12 100;
name 12192217238;
parent node12192217238T12192217312;
nominal_voltage 120;
};

object overhead_line {
phases BN;
from node41664167;
name 4155;
to node41064155;
length 605.99;
configuration 2808line_configuration163701;
};

object overhead_line {
phases BN;
from node41064155;
name 4106;
to nodeT121921506204106;
length 514.036;
configuration 2808line_configuration163701;
};

object transformer {
phases BS;
from nodeT121921506204106;
name T12192150620;
to node12192150602T12192150620;
configuration T12113219607transformer_configuration98301;
};

object triplex_node {
phases BS;
power_12 100;
name 12192150602;
parent node12192150602T12192150620;
nominal_voltage 120;
};

object overhead_line {
phases BN;
from nodeT121730373864332;
name 4333;
to nodeT121730384364333;
length 228.772;
configuration 2808line_configuration163701;
};

object transformer {
phases BS;
from nodeT121730384364333;
name T12173038436;
to node12173038449T12173038436;
configuration T12113219607transformer_configuration98301;
};

object triplex_node {
phases BS;
power_12 100;
name 12173038449;
parent node12173038449T12173038436;
nominal_voltage 120;
};

object overhead_line {
phases BN;
from node43324344;
name 4345;
to node41314345;
length 244.827;
configuration 2808line_configuration163701;
};

object overhead_line {
phases BN;
from node41314345;
name 4131;
to nodeT121730394124131;
length 219;
configuration 2808line_configuration163701;
};

object transformer {
phases BS;
from nodeT121730394124131;
name T12173039412;
to node12173039453T12173039412;
configuration T12113219607transformer_configuration98301;
};

object triplex_node {
phases BS;
power_12 100;
name 12173039453;
parent node12173039453T12173039412;
nominal_voltage 120;
};

object overhead_line {
phases BN;
from node40123967;
name 4385;
to nodeT121731173584385;
length 569.537;
configuration 2808line_configuration163701;
};

object transformer {
phases BS;
from nodeT121731173584385;
name T12173117358;
to node12173117389T12173117358;
configuration T12113219607transformer_configuration98301;
};

object triplex_node {
phases BS;
power_12 100;
name 12173117389;
parent node12173117389T12173117358;
nominal_voltage 120;
};

object overhead_line {
phases BN;
from node47854700;
name 4701;
to node48264701;
length 297.919;
configuration 2808line_configuration163701;
};

object overhead_line {
phases BN;
from node48264701;
name 4826;
to nodeT121740660794826;
length 395.584;
configuration 2808line_configuration163701;
};

object transformer {
phases BS;
from nodeT121740660794826;
name T12174066079;
to node12174067134T12174066079;
configuration T12113219607transformer_configuration98301;
};

object triplex_node {
phases BS;
power_12 100;
name 12174067134;
parent node12174067134T12174066079;
nominal_voltage 120;
};

object overhead_line {
phases BN;
from node675305549;
name 5548;
to node55475548;
length 11.9536;
configuration 2918line_configuration22401;
};

object overhead_line {
phases BN;
from node55475548;
name 5547;
to nodeSW1506-Bx15547;
length 15.4086;
configuration 2918line_configuration22401;
};

object overhead_line {
phases ACBN;
from node55495564;
name 5560;
to node55595560;
length 88.0892;
configuration 5564line_configuration7701;
};

object overhead_line {
phases ACBN;
from node55595560;
name 5559;
to node55685559;
length 82.7553;
configuration 8106line_configuration97601;
};

object overhead_line {
phases ACBN;
from node55685559;
name 5568;
to node55875568;
length 477.361;
configuration 8106line_configuration97601;
};

object overhead_line {
phases ACBN;
from node55875568;
name 5587;
to node57545587;
length 518.403;
configuration 8106line_configuration97601;
};

object overhead_line {
phases ACBN;
from node57545587;
name 5754;
to node53415754;
length 551.06;
configuration 8106line_configuration97601;
};

object overhead_line {
phases ACBN;
from node53415754;
name 5341;
to node58485341;
length 537.442;
configuration 8106line_configuration97601;
};

object overhead_line {
phases ACBN;
from node58485341;
name 5848;
to node58695848;
length 317.932;
configuration 8106line_configuration97601;
};

object overhead_line {
phases ACBN;
from node58695848;
name 5869;
to node59005869;
length 418.542;
configuration 8106line_configuration97601;
};

object overhead_line {
phases ACBN;
from node59005869;
name 5900;
to node59305900;
length 340.128;
configuration 8106line_configuration97601;
};

object overhead_line {
phases ACBN;
from node59305900;
name 5930;
to node59675930;
length 548.488;
configuration 8106line_configuration97601;
};

object overhead_line {
phases ACBN;
from node59675930;
name 5967;
to node59925967;
length 345.714;
configuration 8106line_configuration97601;
};

object overhead_line {
phases ACBN;
from node59925967;
name 5992;
to node59465992;
length 373.559;
configuration 8106line_configuration97601;
};

object overhead_line {
phases CN;
from node59465992;
name 5946;
to nodeF90425946;
length 18.7993;
configuration 5815line_configuration260501;
};

object fuse {
phases CN;
from nodeF90425946;
name F9042;
current_limit 9999.0 A;
to node5945F9042;
};

object overhead_line {
phases CN;
from node5945F9042;
name 5945;
to node53505945;
length 509.518;
configuration 5815line_configuration260501;
};

object overhead_line {
phases CN;
from node53505945;
name 5350;
to node53395350;
length 805.034;
configuration 5815line_configuration260501;
};

object overhead_line {
phases CN;
from node53395350;
name 5339;
to node57595339;
length 83.9959;
configuration 5815line_configuration260501;
};

object overhead_line {
phases CN;
from node57595339;
name 5759;
to node55795759;
length 175.252;
configuration 5815line_configuration260501;
};

object overhead_line {
phases CN;
from node55795759;
name 5579;
to node46155579;
length 318.085;
configuration 5815line_configuration260501;
};

object overhead_line {
phases CN;
from node46155579;
name 4615;
to nodeT121581696624615;
length 567.931;
configuration 5815line_configuration260501;
};

object transformer {
phases CS;
from nodeT121581696624615;
name T12158169662;
to node12158169613T12158169662;
configuration T12113219607transformer_configuration98301;
};

object triplex_node {
phases CS;
power_12 5602.92;
name 12158169613;
parent node12158169613T12158169662;
nominal_voltage 120;
};

object overhead_line {
phases CN;
from node59465992;
name 5367;
to nodeF83665367;
length 14.5076;
configuration 6488line_configuration261501;
};

object fuse {
phases CN;
from nodeF83665367;
name F8366;
current_limit 9999.0 A;
to node5370F8366;
};

object overhead_line {
phases CN;
from node5370F8366;
name 5370;
to nodeT121590621485370;
length 362.609;
configuration 6488line_configuration261501;
};

object transformer {
phases CS;
from nodeT121590621485370;
name T12159062148;
to node12159062157T12159062148;
configuration T12113219607transformer_configuration98301;
};

object triplex_node {
phases CS;
power_12 100;
name 12159062157;
parent node12159062157T12159062148;
nominal_voltage 120;
};

object overhead_line {
phases ACBN;
from node59465992;
name 5366;
to node53745366;
length 286.085;
configuration 8106line_configuration97601;
};

object overhead_line {
phases ACBN;
from node53745366;
name 5374;
to node60945374;
length 207.983;
configuration 8106line_configuration97601;
};

object overhead_line {
phases ACBN;
from node60945374;
name 6094;
to node61036094;
length 350.029;
configuration 8106line_configuration97601;
};

object overhead_line {
phases ACBN;
from node61036094;
name 6103;
to node59946103;
length 536.32;
configuration 8106line_configuration97601;
};

object overhead_line {
phases ACBN;
from node59946103;
name 5994;
to node60045994;
length 438.401;
configuration 8106line_configuration97601;
};

object overhead_line {
phases ACBN;
from node60045994;
name 6004;
to node60066004;
length 197.007;
configuration 8106line_configuration97601;
};

object overhead_line {
phases ACBN;
from node60066004;
name 6006;
to node679826006;
length 184.628;
configuration 8106line_configuration97601;
};

object overhead_line {
phases AN;
from node679826006;
name 67982;
to nodeR134967982;
length 19.9999;
configuration 6769line_configuration90101;
};

object fuse {
phases AN;
from nodeR134967982;
name R1349;
current_limit 9999.0 A;
to node67983R1349;
};

object overhead_line {
phases AN;
from node67983R1349;
name 67983;
to node601867983;
length 10;
configuration 6769line_configuration90101;
};

object overhead_line {
phases AN;
from node601867983;
name 6018;
to node60126018;
length 19.2223;
configuration 6769line_configuration90101;
};

object overhead_line {
phases AN;
from node60126018;
name 6012;
to nodeSW1544-Bx16012;
length 17.4274;
configuration 6769line_configuration90101;
};

object overhead_line {
phases AN;
from node601867983;
name 6019;
to nodeT121591839236019;
length 138.621;
configuration 6769line_configuration90101;
};

object transformer {
phases AS;
from nodeT121591839236019;
name T12159183923;
to node12159124031T12159183923;
configuration T12113219607transformer_configuration98301;
};

object triplex_node {
phases AS;
power_12 100;
name 12159124031;
parent node12159124031T12159183923;
nominal_voltage 120;
};

object overhead_line {
phases AN;
from nodeT121591839236019;
name 6090;
to nodeT121591859526090;
length 459.26;
configuration 6769line_configuration90101;
};

object transformer {
phases AS;
from nodeT121591859526090;
name T12159185952;
to node12159125073T12159185952;
configuration T12113219607transformer_configuration98301;
};

object triplex_node {
phases AS;
power_12 100;
name 12159125073;
parent node12159125073T12159185952;
nominal_voltage 120;
};

object overhead_line {
phases AN;
from nodeT121591859526090;
name 6234;
to node63276234;
length 505.954;
configuration 6769line_configuration90101;
};

object overhead_line {
phases AN;
from node63276234;
name 6327;
to node64146327;
length 562.844;
configuration 6769line_configuration90101;
};

object overhead_line {
phases AN;
from node64146327;
name 6414;
to node66676414;
length 528.208;
configuration 6769line_configuration90101;
};

object overhead_line {
phases AN;
from node66676414;
name 6667;
to node68626667;
length 755.731;
configuration 6769line_configuration90101;
};

object overhead_line {
phases AN;
from node68626667;
name 6862;
to node70576862;
length 513.962;
configuration 6769line_configuration90101;
};

object overhead_line {
phases AN;
from node70576862;
name 7057;
to nodeT121591998967057;
length 126;
configuration 4041line_configuration65501;
};

object transformer {
phases AS;
from nodeT121591998967057;
name T12159199896;
to node12159200826T12159199896;
configuration T12113219607transformer_configuration98301;
};

object triplex_node {
phases AS;
power_12 100;
name 12159200826;
parent node12159200826T12159199896;
nominal_voltage 120;
};

object overhead_line {
phases AN;
from node70576862;
name 7056;
to node61697056;
length 278.675;
configuration 4041line_configuration65501;
};

object overhead_line {
phases AN;
from node61697056;
name 6169;
to node65696169;
length 131.94;
configuration 4041line_configuration65501;
};

object overhead_line {
phases AN;
from node65696169;
name 6569;
to nodeT121592029316569;
length 183.003;
configuration 4041line_configuration65501;
};

object transformer {
phases AS;
from nodeT121592029316569;
name T12159202931;
to node12159202976T12159202931;
configuration T12113219607transformer_configuration98301;
};

object triplex_node {
phases AS;
power_12 100;
name 12159202976;
parent node12159202976T12159202931;
nominal_voltage 120;
};

object overhead_line {
phases AN;
from node61697056;
name 6168;
to nodeT121592027196168;
length 202.938;
configuration 4041line_configuration65501;
};

object transformer {
phases AS;
from nodeT121592027196168;
name T12159202719;
to node12159202873T12159202719;
configuration T12113219607transformer_configuration98301;
};

object triplex_node {
phases AS;
power_12 100;
name 12159202873;
parent node12159202873T12159202719;
nominal_voltage 120;
};

object triplex_node {
phases AS;
power_12 100;
name 12159202721;
parent node12159202873T12159202719;
nominal_voltage 120;
};

object overhead_line {
phases AN;
from node68626667;
name 6861;
to node69346861;
length 814.689;
configuration 6769line_configuration90101;
};

object overhead_line {
phases AN;
from node69346861;
name 6934;
to nodeT121591994766934;
length 357.043;
configuration 4041line_configuration65501;
};

object transformer {
phases AS;
from nodeT121591994766934;
name T12159199476;
to node12159200427T12159199476;
configuration T12113219607transformer_configuration98301;
};

object triplex_node {
phases AS;
power_12 100;
name 12159200427;
parent node12159200427T12159199476;
nominal_voltage 120;
};

object overhead_line {
phases AN;
from node69346861;
name 6932;
to nodeF83626932;
length 572.516;
configuration 6769line_configuration90101;
};

object fuse {
phases AN;
from nodeF83626932;
name F8362;
current_limit 9999.0 A;
to node6933F8362;
};

object overhead_line {
phases AN;
from node6933F8362;
name 6933;
to nodeT121591981616933;
length 19.5401;
configuration 6769line_configuration90101;
};

object transformer {
phases AS;
from nodeT121591981616933;
name T12159198161;
to node12159198025T12159198161;
configuration T12113219607transformer_configuration98301;
};

object triplex_node {
phases AS;
power_12 100;
name 12159198025;
parent node12159198025T12159198161;
nominal_voltage 120;
};

object overhead_line {
phases AN;
from nodeT121591981616933;
name 6958;
to nodeT121430198186958;
length 468.141;
configuration 6769line_configuration90101;
};

object transformer {
phases AS;
from nodeT121430198186958;
name T12143019818;
to node12143019816T12143019818;
configuration T12113219607transformer_configuration98301;
};

object triplex_node {
phases AS;
power_12 100;
name 12143019816;
parent node12143019816T12143019818;
nominal_voltage 120;
};

object overhead_line {
phases AN;
from nodeT121430198186958;
name 7005;
...