scratch/importTests/Owen-Bromley.VOLTS.csv
# Owen-Bromley.VOLTS.csv run at 2000-01-01 00:00:00 PST on 2743 nodes
node_name,voltA_real,voltA_imag,voltB_real,voltB_imag,voltC_real,voltC_imag
BROMLEY,2400.000000,0.000000,-1200.000000,-2078.460969,-1200.000000,2078.460969
12175202046,-1.#IND00,-1.#IND00,-1.#IND00,-1.#IND00,-1.#IND00,-1.#IND00
12175200073,-1.#IND00,-1.#IND00,-1.#IND00,-1.#IND00,-1.#IND00,-1.#IND00
12175190010,-1.#IND00,-1.#IND00,-1.#IND00,-1.#IND00,-1.#IND00,-1.#IND00
12175188268,-1.#IND00,-1.#IND00,-1.#IND00,-1.#IND00,-1.#IND00,-1.#IND00
12175181551,-1.#IND00,-1.#IND00,-1.#IND00,-1.#IND00,-1.#IND00,-1.#IND00
12175182615,-1.#IND00,-1.#IND00,-1.#IND00,-1.#IND00,-1.#IND00,-1.#IND00
12174236245,-1.#IND00,-1.#IND00,-1.#IND00,-1.#IND00,-1.#IND00,-1.#IND00
12174237119,-1.#IND00,-1.#IND00,-1.#IND00,-1.#IND00,-1.#IND00,-1.#IND00
12174232273,-1.#IND00,-1.#IND00,-1.#IND00,-1.#IND00,-1.#IND00,-1.#IND00
12174230251,-1.#IND00,-1.#IND00,-1.#IND00,-1.#IND00,-1.#IND00,-1.#IND00
12174228031,-1.#IND00,-1.#IND00,-1.#IND00,-1.#IND00,-1.#IND00,-1.#IND00
12174129601,-1.#IND00,-1.#IND00,-1.#IND00,-1.#IND00,-1.#IND00,-1.#IND00
12174122374,-1.#IND00,-1.#IND00,-1.#IND00,-1.#IND00,-1.#IND00,-1.#IND00
12173179254,-1.#IND00,-1.#IND00,-1.#IND00,-1.#IND00,-1.#IND00,-1.#IND00
12174127474,-1.#IND00,-1.#IND00,-1.#IND00,-1.#IND00,-1.#IND00,-1.#IND00
12173172049,-1.#IND00,-1.#IND00,-1.#IND00,-1.#IND00,-1.#IND00,-1.#IND00
12173103586,-1.#IND00,-1.#IND00,-1.#IND00,-1.#IND00,-1.#IND00,-1.#IND00
12173102586,-1.#IND00,-1.#IND00,-1.#IND00,-1.#IND00,-1.#IND00,-1.#IND00
12173091217,-1.#IND00,-1.#IND00,-1.#IND00,-1.#IND00,-1.#IND00,-1.#IND00
12173035983,-1.#IND00,-1.#IND00,-1.#IND00,-1.#IND00,-1.#IND00,-1.#IND00
12173028551,-1.#IND00,-1.#IND00,-1.#IND00,-1.#IND00,-1.#IND00,-1.#IND00
12173003320,-1.#IND00,-1.#IND00,-1.#IND00,-1.#IND00,-1.#IND00,-1.#IND00
12173002164,-1.#IND00,-1.#IND00,-1.#IND00,-1.#IND00,-1.#IND00,-1.#IND00
12173060273,-1.#IND00,-1.#IND00,-1.#IND00,-1.#IND00,-1.#IND00,-1.#IND00
12173060303,-1.#IND00,-1.#IND00,-1.#IND00,-1.#IND00,-1.#IND00,-1.#IND00
12172118932,-1.#IND00,-1.#IND00,-1.#IND00,-1.#IND00,-1.#IND00,-1.#IND00
12172116686,-1.#IND00,-1.#IND00,-1.#IND00,-1.#IND00,-1.#IND00,-1.#IND00
12173121842,-1.#IND00,-1.#IND00,-1.#IND00,-1.#IND00,-1.#IND00,-1.#IND00
12172179053,-1.#IND00,-1.#IND00,-1.#IND00,-1.#IND00,-1.#IND00,-1.#IND00
12172238911,-1.#IND00,-1.#IND00,-1.#IND00,-1.#IND00,-1.#IND00,-1.#IND00
12172237754,-1.#IND00,-1.#IND00,-1.#IND00,-1.#IND00,-1.#IND00,-1.#IND00
12172237529,-1.#IND00,-1.#IND00,-1.#IND00,-1.#IND00,-1.#IND00,-1.#IND00
12173014405,-1.#IND00,-1.#IND00,-1.#IND00,-1.#IND00,-1.#IND00,-1.#IND00
12173008074,-1.#IND00,-1.#IND00,-1.#IND00,-1.#IND00,-1.#IND00,-1.#IND00
12192213925,-1.#IND00,-1.#IND00,-1.#IND00,-1.#IND00,-1.#IND00,-1.#IND00
12192216732,-1.#IND00,-1.#IND00,-1.#IND00,-1.#IND00,-1.#IND00,-1.#IND00
12192217238,-1.#IND00,-1.#IND00,-1.#IND00,-1.#IND00,-1.#IND00,-1.#IND00
12192150602,-1.#IND00,-1.#IND00,-1.#IND00,-1.#IND00,-1.#IND00,-1.#IND00
12173038449,-1.#IND00,-1.#IND00,-1.#IND00,-1.#IND00,-1.#IND00,-1.#IND00
12173039453,-1.#IND00,-1.#IND00,-1.#IND00,-1.#IND00,-1.#IND00,-1.#IND00
12173117389,-1.#IND00,-1.#IND00,-1.#IND00,-1.#IND00,-1.#IND00,-1.#IND00
12174067134,-1.#IND00,-1.#IND00,-1.#IND00,-1.#IND00,-1.#IND00,-1.#IND00
12158169613,-1.#IND00,-1.#IND00,-1.#IND00,-1.#IND00,-1.#IND00,-1.#IND00
12159062157,-1.#IND00,-1.#IND00,-1.#IND00,-1.#IND00,-1.#IND00,-1.#IND00
12159124031,-1.#IND00,-1.#IND00,-1.#IND00,-1.#IND00,-1.#IND00,-1.#IND00
12159125073,-1.#IND00,-1.#IND00,-1.#IND00,-1.#IND00,-1.#IND00,-1.#IND00
12159200826,-1.#IND00,-1.#IND00,-1.#IND00,-1.#IND00,-1.#IND00,-1.#IND00
12159202976,-1.#IND00,-1.#IND00,-1.#IND00,-1.#IND00,-1.#IND00,-1.#IND00
12159202873,-1.#IND00,-1.#IND00,-1.#IND00,-1.#IND00,-1.#IND00,-1.#IND00
12159202721,-1.#IND00,-1.#IND00,-1.#IND00,-1.#IND00,-1.#IND00,-1.#IND00
12159200427,-1.#IND00,-1.#IND00,-1.#IND00,-1.#IND00,-1.#IND00,-1.#IND00
12159198025,-1.#IND00,-1.#IND00,-1.#IND00,-1.#IND00,-1.#IND00,-1.#IND00
12143019816,-1.#IND00,-1.#IND00,-1.#IND00,-1.#IND00,-1.#IND00,-1.#IND00
12143071160,-1.#IND00,-1.#IND00,-1.#IND00,-1.#IND00,-1.#IND00,-1.#IND00
12143070104,-1.#IND00,-1.#IND00,-1.#IND00,-1.#IND00,-1.#IND00,-1.#IND00
12142105563,-1.#IND00,-1.#IND00,-1.#IND00,-1.#IND00,-1.#IND00,-1.#IND00
12142103602,-1.#IND00,-1.#IND00,-1.#IND00,-1.#IND00,-1.#IND00,-1.#IND00
12142103590,-1.#IND00,-1.#IND00,-1.#IND00,-1.#IND00,-1.#IND00,-1.#IND00
12142104437,-1.#IND00,-1.#IND00,-1.#IND00,-1.#IND00,-1.#IND00,-1.#IND00
12142104109,-1.#IND00,-1.#IND00,-1.#IND00,-1.#IND00,-1.#IND00,-1.#IND00
12142101470,-1.#IND00,-1.#IND00,-1.#IND00,-1.#IND00,-1.#IND00,-1.#IND00
12142158960,-1.#IND00,-1.#IND00,-1.#IND00,-1.#IND00,-1.#IND00,-1.#IND00
12142028658,-1.#IND00,-1.#IND00,-1.#IND00,-1.#IND00,-1.#IND00,-1.#IND00
12142039221,-1.#IND00,-1.#IND00,-1.#IND00,-1.#IND00,-1.#IND00,-1.#IND00
12142167790,-1.#IND00,-1.#IND00,-1.#IND00,-1.#IND00,-1.#IND00,-1.#IND00
12142170651,-1.#IND00,-1.#IND00,-1.#IND00,-1.#IND00,-1.#IND00,-1.#IND00
12142171850,-1.#IND00,-1.#IND00,-1.#IND00,-1.#IND00,-1.#IND00,-1.#IND00
12142174708,-1.#IND00,-1.#IND00,-1.#IND00,-1.#IND00,-1.#IND00,-1.#IND00
12142175593,-1.#IND00,-1.#IND00,-1.#IND00,-1.#IND00,-1.#IND00,-1.#IND00
12142179500,-1.#IND00,-1.#IND00,-1.#IND00,-1.#IND00,-1.#IND00,-1.#IND00
12142177596,-1.#IND00,-1.#IND00,-1.#IND00,-1.#IND00,-1.#IND00,-1.#IND00
12143180820,-1.#IND00,-1.#IND00,-1.#IND00,-1.#IND00,-1.#IND00,-1.#IND00
12143181831,-1.#IND00,-1.#IND00,-1.#IND00,-1.#IND00,-1.#IND00,-1.#IND00
12127042360,-1.#IND00,-1.#IND00,-1.#IND00,-1.#IND00,-1.#IND00,-1.#IND00
12127040478,-1.#IND00,-1.#IND00,-1.#IND00,-1.#IND00,-1.#IND00,-1.#IND00
12127029320,-1.#IND00,-1.#IND00,-1.#IND00,-1.#IND00,-1.#IND00,-1.#IND00
12127027640,-1.#IND00,-1.#IND00,-1.#IND00,-1.#IND00,-1.#IND00,-1.#IND00
12127021529,-1.#IND00,-1.#IND00,-1.#IND00,-1.#IND00,-1.#IND00,-1.#IND00
12127019611,-1.#IND00,-1.#IND00,-1.#IND00,-1.#IND00,-1.#IND00,-1.#IND00
12127017692,-1.#IND00,-1.#IND00,-1.#IND00,-1.#IND00,-1.#IND00,-1.#IND00
12127017658,-1.#IND00,-1.#IND00,-1.#IND00,-1.#IND00,-1.#IND00,-1.#IND00
12127015614,-1.#IND00,-1.#IND00,-1.#IND00,-1.#IND00,-1.#IND00,-1.#IND00
12127015257,-1.#IND00,-1.#IND00,-1.#IND00,-1.#IND00,-1.#IND00,-1.#IND00
12127013613,-1.#IND00,-1.#IND00,-1.#IND00,-1.#IND00,-1.#IND00,-1.#IND00
12142196802,-1.#IND00,-1.#IND00,-1.#IND00,-1.#IND00,-1.#IND00,-1.#IND00
12142198961,-1.#IND00,-1.#IND00,-1.#IND00,-1.#IND00,-1.#IND00,-1.#IND00
12142139137,-1.#IND00,-1.#IND00,-1.#IND00,-1.#IND00,-1.#IND00,-1.#IND00
12142139612,-1.#IND00,-1.#IND00,-1.#IND00,-1.#IND00,-1.#IND00,-1.#IND00
12142142886,-1.#IND00,-1.#IND00,-1.#IND00,-1.#IND00,-1.#IND00,-1.#IND00
12142140372,-1.#IND00,-1.#IND00,-1.#IND00,-1.#IND00,-1.#IND00,-1.#IND00
12142067221,-1.#IND00,-1.#IND00,-1.#IND00,-1.#IND00,-1.#IND00,-1.#IND00
12142060640,-1.#IND00,-1.#IND00,-1.#IND00,-1.#IND00,-1.#IND00,-1.#IND00
12141116310,-1.#IND00,-1.#IND00,-1.#IND00,-1.#IND00,-1.#IND00,-1.#IND00
12141175941,-1.#IND00,-1.#IND00,-1.#IND00,-1.#IND00,-1.#IND00,-1.#IND00
12141175820,-1.#IND00,-1.#IND00,-1.#IND00,-1.#IND00,-1.#IND00,-1.#IND00
12141119766,-1.#IND00,-1.#IND00,-1.#IND00,-1.#IND00,-1.#IND00,-1.#IND00
12142060716,-1.#IND00,-1.#IND00,-1.#IND00,-1.#IND00,-1.#IND00,-1.#IND00
12142060608,-1.#IND00,-1.#IND00,-1.#IND00,-1.#IND00,-1.#IND00,-1.#IND00
12141059218,-1.#IND00,-1.#IND00,-1.#IND00,-1.#IND00,-1.#IND00,-1.#IND00
12142001342,-1.#IND00,-1.#IND00,-1.#IND00,-1.#IND00,-1.#IND00,-1.#IND00
12142000632,-1.#IND00,-1.#IND00,-1.#IND00,-1.#IND00,-1.#IND00,-1.#IND00
12158192212,-1.#IND00,-1.#IND00,-1.#IND00,-1.#IND00,-1.#IND00,-1.#IND00
12158180110,-1.#IND00,-1.#IND00,-1.#IND00,-1.#IND00,-1.#IND00,-1.#IND00
12157239645,-1.#IND00,-1.#IND00,-1.#IND00,-1.#IND00,-1.#IND00,-1.#IND00
12141118833,-1.#IND00,-1.#IND00,-1.#IND00,-1.#IND00,-1.#IND00,-1.#IND00
12142131935,-1.#IND00,-1.#IND00,-1.#IND00,-1.#IND00,-1.#IND00,-1.#IND00
12142199608,-1.#IND00,-1.#IND00,-1.#IND00,-1.#IND00,-1.#IND00,-1.#IND00
12142192737,-1.#IND00,-1.#IND00,-1.#IND00,-1.#IND00,-1.#IND00,-1.#IND00
12127006672,-1.#IND00,-1.#IND00,-1.#IND00,-1.#IND00,-1.#IND00,-1.#IND00
12127007773,-1.#IND00,-1.#IND00,-1.#IND00,-1.#IND00,-1.#IND00,-1.#IND00
12127008705,-1.#IND00,-1.#IND00,-1.#IND00,-1.#IND00,-1.#IND00,-1.#IND00
12127065423,-1.#IND00,-1.#IND00,-1.#IND00,-1.#IND00,-1.#IND00,-1.#IND00
12126028288,-1.#IND00,-1.#IND00,-1.#IND00,-1.#IND00,-1.#IND00,-1.#IND00
12126028262,-1.#IND00,-1.#IND00,-1.#IND00,-1.#IND00,-1.#IND00,-1.#IND00
12126027295,-1.#IND00,-1.#IND00,-1.#IND00,-1.#IND00,-1.#IND00,-1.#IND00
12126026691,-1.#IND00,-1.#IND00,-1.#IND00,-1.#IND00,-1.#IND00,-1.#IND00
12126027670,-1.#IND00,-1.#IND00,-1.#IND00,-1.#IND00,-1.#IND00,-1.#IND00
12126025140,-1.#IND00,-1.#IND00,-1.#IND00,-1.#IND00,-1.#IND00,-1.#IND00
12126083998,-1.#IND00,-1.#IND00,-1.#IND00,-1.#IND00,-1.#IND00,-1.#IND00
12126081772,-1.#IND00,-1.#IND00,-1.#IND00,-1.#IND00,-1.#IND00,-1.#IND00
12126141785,-1.#IND00,-1.#IND00,-1.#IND00,-1.#IND00,-1.#IND00,-1.#IND00
12126142524,-1.#IND00,-1.#IND00,-1.#IND00,-1.#IND00,-1.#IND00,-1.#IND00
12126137180,-1.#IND00,-1.#IND00,-1.#IND00,-1.#IND00,-1.#IND00,-1.#IND00
12126137162,-1.#IND00,-1.#IND00,-1.#IND00,-1.#IND00,-1.#IND00,-1.#IND00
12126197974,-1.#IND00,-1.#IND00,-1.#IND00,-1.#IND00,-1.#IND00,-1.#IND00
12111003733,-1.#IND00,-1.#IND00,-1.#IND00,-1.#IND00,-1.#IND00,-1.#IND00
12126034301,-1.#IND00,-1.#IND00,-1.#IND00,-1.#IND00,-1.#IND00,-1.#IND00
12141220044,-1.#IND00,-1.#IND00,-1.#IND00,-1.#IND00,-1.#IND00,-1.#IND00
12126051344,-1.#IND00,-1.#IND00,-1.#IND00,-1.#IND00,-1.#IND00,-1.#IND00
12141234314,-1.#IND00,-1.#IND00,-1.#IND00,-1.#IND00,-1.#IND00,-1.#IND00
12141233321,-1.#IND00,-1.#IND00,-1.#IND00,-1.#IND00,-1.#IND00,-1.#IND00
12141235530,-1.#IND00,-1.#IND00,-1.#IND00,-1.#IND00,-1.#IND00,-1.#IND00
12127027689,-1.#IND00,-1.#IND00,-1.#IND00,-1.#IND00,-1.#IND00,-1.#IND00
12127114256,-1.#IND00,-1.#IND00,-1.#IND00,-1.#IND00,-1.#IND00,-1.#IND00
12127173212,-1.#IND00,-1.#IND00,-1.#IND00,-1.#IND00,-1.#IND00,-1.#IND00
12127173244,-1.#IND00,-1.#IND00,-1.#IND00,-1.#IND00,-1.#IND00,-1.#IND00
12127231854,-1.#IND00,-1.#IND00,-1.#IND00,-1.#IND00,-1.#IND00,-1.#IND00
12127175175,-1.#IND00,-1.#IND00,-1.#IND00,-1.#IND00,-1.#IND00,-1.#IND00
12128122028,-1.#IND00,-1.#IND00,-1.#IND00,-1.#IND00,-1.#IND00,-1.#IND00
12128187896,-1.#IND00,-1.#IND00,-1.#IND00,-1.#IND00,-1.#IND00,-1.#IND00
12128188732,-1.#IND00,-1.#IND00,-1.#IND00,-1.#IND00,-1.#IND00,-1.#IND00
12128188773,-1.#IND00,-1.#IND00,-1.#IND00,-1.#IND00,-1.#IND00,-1.#IND00
12128188743,-1.#IND00,-1.#IND00,-1.#IND00,-1.#IND00,-1.#IND00,-1.#IND00
12128188430,-1.#IND00,-1.#IND00,-1.#IND00,-1.#IND00,-1.#IND00,-1.#IND00
12113008087,-1.#IND00,-1.#IND00,-1.#IND00,-1.#IND00,-1.#IND00,-1.#IND00
12113008216,-1.#IND00,-1.#IND00,-1.#IND00,-1.#IND00,-1.#IND00,-1.#IND00
12113007263,-1.#IND00,-1.#IND00,-1.#IND00,-1.#IND00,-1.#IND00,-1.#IND00
12113017366,-1.#IND00,-1.#IND00,-1.#IND00,-1.#IND00,-1.#IND00,-1.#IND00
12113142978,-1.#IND00,-1.#IND00,-1.#IND00,-1.#IND00,-1.#IND00,-1.#IND00
12113144879,-1.#IND00,-1.#IND00,-1.#IND00,-1.#IND00,-1.#IND00,-1.#IND00
12113143890,-1.#IND00,-1.#IND00,-1.#IND00,-1.#IND00,-1.#IND00,-1.#IND00
12113143871,-1.#IND00,-1.#IND00,-1.#IND00,-1.#IND00,-1.#IND00,-1.#IND00
12113144971,-1.#IND00,-1.#IND00,-1.#IND00,-1.#IND00,-1.#IND00,-1.#IND00
12113146718,-1.#IND00,-1.#IND00,-1.#IND00,-1.#IND00,-1.#IND00,-1.#IND00
12113150380,-1.#IND00,-1.#IND00,-1.#IND00,-1.#IND00,-1.#IND00,-1.#IND00
12113152102,-1.#IND00,-1.#IND00,-1.#IND00,-1.#IND00,-1.#IND00,-1.#IND00
12113149281,-1.#IND00,-1.#IND00,-1.#IND00,-1.#IND00,-1.#IND00,-1.#IND00
12113148323,-1.#IND00,-1.#IND00,-1.#IND00,-1.#IND00,-1.#IND00,-1.#IND00
12113148279,-1.#IND00,-1.#IND00,-1.#IND00,-1.#IND00,-1.#IND00,-1.#IND00
12113153036,-1.#IND00,-1.#IND00,-1.#IND00,-1.#IND00,-1.#IND00,-1.#IND00
12113213936,-1.#IND00,-1.#IND00,-1.#IND00,-1.#IND00,-1.#IND00,-1.#IND00
12113155242,-1.#IND00,-1.#IND00,-1.#IND00,-1.#IND00,-1.#IND00,-1.#IND00
12113216942,-1.#IND00,-1.#IND00,-1.#IND00,-1.#IND00,-1.#IND00,-1.#IND00
12113216971,-1.#IND00,-1.#IND00,-1.#IND00,-1.#IND00,-1.#IND00,-1.#IND00
12113215959,-1.#IND00,-1.#IND00,-1.#IND00,-1.#IND00,-1.#IND00,-1.#IND00
12113215814,-1.#IND00,-1.#IND00,-1.#IND00,-1.#IND00,-1.#IND00,-1.#IND00
12113218726,-1.#IND00,-1.#IND00,-1.#IND00,-1.#IND00,-1.#IND00,-1.#IND00
12113218762,-1.#IND00,-1.#IND00,-1.#IND00,-1.#IND00,-1.#IND00,-1.#IND00
12113219621,-1.#IND00,-1.#IND00,-1.#IND00,-1.#IND00,-1.#IND00,-1.#IND00
12113218687,-1.#IND00,-1.#IND00,-1.#IND00,-1.#IND00,-1.#IND00,-1.#IND00
12113218504,-1.#IND00,-1.#IND00,-1.#IND00,-1.#IND00,-1.#IND00,-1.#IND00
12113220513,-1.#IND00,-1.#IND00,-1.#IND00,-1.#IND00,-1.#IND00,-1.#IND00
12113219564,-1.#IND00,-1.#IND00,-1.#IND00,-1.#IND00,-1.#IND00,-1.#IND00
12113220543,-1.#IND00,-1.#IND00,-1.#IND00,-1.#IND00,-1.#IND00,-1.#IND00
12099055675,-1.#IND00,-1.#IND00,-1.#IND00,-1.#IND00,-1.#IND00,-1.#IND00
12099055545,-1.#IND00,-1.#IND00,-1.#IND00,-1.#IND00,-1.#IND00,-1.#IND00
12099055650,-1.#IND00,-1.#IND00,-1.#IND00,-1.#IND00,-1.#IND00,-1.#IND00
12099055699,-1.#IND00,-1.#IND00,-1.#IND00,-1.#IND00,-1.#IND00,-1.#IND00
12099056714,-1.#IND00,-1.#IND00,-1.#IND00,-1.#IND00,-1.#IND00,-1.#IND00
12099056729,-1.#IND00,-1.#IND00,-1.#IND00,-1.#IND00,-1.#IND00,-1.#IND00
12099056724,-1.#IND00,-1.#IND00,-1.#IND00,-1.#IND00,-1.#IND00,-1.#IND00
12099118871,-1.#IND00,-1.#IND00,-1.#IND00,-1.#IND00,-1.#IND00,-1.#IND00
12100061978,-1.#IND00,-1.#IND00,-1.#IND00,-1.#IND00,-1.#IND00,-1.#IND00
12100061953,-1.#IND00,-1.#IND00,-1.#IND00,-1.#IND00,-1.#IND00,-1.#IND00
12100002018,-1.#IND00,-1.#IND00,-1.#IND00,-1.#IND00,-1.#IND00,-1.#IND00
12100002039,-1.#IND00,-1.#IND00,-1.#IND00,-1.#IND00,-1.#IND00,-1.#IND00
12100060858,-1.#IND00,-1.#IND00,-1.#IND00,-1.#IND00,-1.#IND00,-1.#IND00
12100061715,-1.#IND00,-1.#IND00,-1.#IND00,-1.#IND00,-1.#IND00,-1.#IND00
12100061717,-1.#IND00,-1.#IND00,-1.#IND00,-1.#IND00,-1.#IND00,-1.#IND00
12100061701,-1.#IND00,-1.#IND00,-1.#IND00,-1.#IND00,-1.#IND00,-1.#IND00
12100060773,-1.#IND00,-1.#IND00,-1.#IND00,-1.#IND00,-1.#IND00,-1.#IND00
12099054578,-1.#IND00,-1.#IND00,-1.#IND00,-1.#IND00,-1.#IND00,-1.#IND00
12099054579,-1.#IND00,-1.#IND00,-1.#IND00,-1.#IND00,-1.#IND00,-1.#IND00
12099054690,-1.#IND00,-1.#IND00,-1.#IND00,-1.#IND00,-1.#IND00,-1.#IND00
12099055602,-1.#IND00,-1.#IND00,-1.#IND00,-1.#IND00,-1.#IND00,-1.#IND00
12099055614,-1.#IND00,-1.#IND00,-1.#IND00,-1.#IND00,-1.#IND00,-1.#IND00
12099055627,-1.#IND00,-1.#IND00,-1.#IND00,-1.#IND00,-1.#IND00,-1.#IND00
12099055628,-1.#IND00,-1.#IND00,-1.#IND00,-1.#IND00,-1.#IND00,-1.#IND00
12099055639,-1.#IND00,-1.#IND00,-1.#IND00,-1.#IND00,-1.#IND00,-1.#IND00
12099055732,-1.#IND00,-1.#IND00,-1.#IND00,-1.#IND00,-1.#IND00,-1.#IND00
...
CAP10,-1.#IND00,-1.#IND00,-1.#IND00,-1.#IND00,-1.#IND00,-1.#IND00
11073217833,-1.#IND00,-1.#IND00,-1.#IND00,-1.#IND00,-1.#IND00,-1.#IND00
11073107342,-1.#IND00,-1.#IND00,-1.#IND00,-1.#IND00,-1.#IND00,-1.#IND00
11073110305,-1.#IND00,-1.#IND00,-1.#IND00,-1.#IND00,-1.#IND00,-1.#IND00
11073049306,-1.#IND00,-1.#IND00,-1.#IND00,-1.#IND00,-1.#IND00,-1.#IND00
11073048559,-1.#IND00,-1.#IND00,-1.#IND00,-1.#IND00,-1.#IND00,-1.#IND00
12085007058,-1.#IND00,-1.#IND00,-1.#IND00,-1.#IND00,-1.#IND00,-1.#IND00
12098187113,-1.#IND00,-1.#IND00,-1.#IND00,-1.#IND00,-1.#IND00,-1.#IND00
12085003999,-1.#IND00,-1.#IND00,-1.#IND00,-1.#IND00,-1.#IND00,-1.#IND00
12098183168,-1.#IND00,-1.#IND00,-1.#IND00,-1.#IND00,-1.#IND00,-1.#IND00
12098184224,-1.#IND00,-1.#IND00,-1.#IND00,-1.#IND00,-1.#IND00,-1.#IND00
12098184226,-1.#IND00,-1.#IND00,-1.#IND00,-1.#IND00,-1.#IND00,-1.#IND00
12098180711,-1.#IND00,-1.#IND00,-1.#IND00,-1.#IND00,-1.#IND00,-1.#IND00
12097165055,-1.#IND00,-1.#IND00,-1.#IND00,-1.#IND00,-1.#IND00,-1.#IND00
12097165095,-1.#IND00,-1.#IND00,-1.#IND00,-1.#IND00,-1.#IND00,-1.#IND00
12097152229,-1.#IND00,-1.#IND00,-1.#IND00,-1.#IND00,-1.#IND00,-1.#IND00
12097146354,-1.#IND00,-1.#IND00,-1.#IND00,-1.#IND00,-1.#IND00,-1.#IND00
12097143396,-1.#IND00,-1.#IND00,-1.#IND00,-1.#IND00,-1.#IND00,-1.#IND00
12097134928,-1.#IND00,-1.#IND00,-1.#IND00,-1.#IND00,-1.#IND00,-1.#IND00
12097074069,-1.#IND00,-1.#IND00,-1.#IND00,-1.#IND00,-1.#IND00,-1.#IND00
12097144630,-1.#IND00,-1.#IND00,-1.#IND00,-1.#IND00,-1.#IND00,-1.#IND00
12097144681,-1.#IND00,-1.#IND00,-1.#IND00,-1.#IND00,-1.#IND00,-1.#IND00
12097147176,-1.#IND00,-1.#IND00,-1.#IND00,-1.#IND00,-1.#IND00,-1.#IND00
12097147189,-1.#IND00,-1.#IND00,-1.#IND00,-1.#IND00,-1.#IND00,-1.#IND00
12097220778,-1.#IND00,-1.#IND00,-1.#IND00,-1.#IND00,-1.#IND00,-1.#IND00
12097218808,-1.#IND00,-1.#IND00,-1.#IND00,-1.#IND00,-1.#IND00,-1.#IND00
12097218982,-1.#IND00,-1.#IND00,-1.#IND00,-1.#IND00,-1.#IND00,-1.#IND00
12097222947,-1.#IND00,-1.#IND00,-1.#IND00,-1.#IND00,-1.#IND00,-1.#IND00
12085148711,-1.#IND00,-1.#IND00,-1.#IND00,-1.#IND00,-1.#IND00,-1.#IND00
12085147787,-1.#IND00,-1.#IND00,-1.#IND00,-1.#IND00,-1.#IND00,-1.#IND00
12085087024,-1.#IND00,-1.#IND00,-1.#IND00,-1.#IND00,-1.#IND00,-1.#IND00
12085087140,-1.#IND00,-1.#IND00,-1.#IND00,-1.#IND00,-1.#IND00,-1.#IND00
12085209877,-1.#IND00,-1.#IND00,-1.#IND00,-1.#IND00,-1.#IND00,-1.#IND00
12085210728,-1.#IND00,-1.#IND00,-1.#IND00,-1.#IND00,-1.#IND00,-1.#IND00
12085209028,-1.#IND00,-1.#IND00,-1.#IND00,-1.#IND00,-1.#IND00,-1.#IND00
12085208172,-1.#IND00,-1.#IND00,-1.#IND00,-1.#IND00,-1.#IND00,-1.#IND00
11074040037,-1.#IND00,-1.#IND00,-1.#IND00,-1.#IND00,-1.#IND00,-1.#IND00
11074102076,-1.#IND00,-1.#IND00,-1.#IND00,-1.#IND00,-1.#IND00,-1.#IND00
11074041072,-1.#IND00,-1.#IND00,-1.#IND00,-1.#IND00,-1.#IND00,-1.#IND00
11074033098,-1.#IND00,-1.#IND00,-1.#IND00,-1.#IND00,-1.#IND00,-1.#IND00
11074092242,-1.#IND00,-1.#IND00,-1.#IND00,-1.#IND00,-1.#IND00,-1.#IND00
11074033169,-1.#IND00,-1.#IND00,-1.#IND00,-1.#IND00,-1.#IND00,-1.#IND00
11074024130,-1.#IND00,-1.#IND00,-1.#IND00,-1.#IND00,-1.#IND00,-1.#IND00
11074023040,-1.#IND00,-1.#IND00,-1.#IND00,-1.#IND00,-1.#IND00,-1.#IND00
11074084608,-1.#IND00,-1.#IND00,-1.#IND00,-1.#IND00,-1.#IND00,-1.#IND00
11074023662,-1.#IND00,-1.#IND00,-1.#IND00,-1.#IND00,-1.#IND00,-1.#IND00
12085209302,-1.#IND00,-1.#IND00,-1.#IND00,-1.#IND00,-1.#IND00,-1.#IND00
12098027570,-1.#IND00,-1.#IND00,-1.#IND00,-1.#IND00,-1.#IND00,-1.#IND00
12098028538,-1.#IND00,-1.#IND00,-1.#IND00,-1.#IND00,-1.#IND00,-1.#IND00
12098025198,-1.#IND00,-1.#IND00,-1.#IND00,-1.#IND00,-1.#IND00,-1.#IND00
12098028234,-1.#IND00,-1.#IND00,-1.#IND00,-1.#IND00,-1.#IND00,-1.#IND00
12098027201,-1.#IND00,-1.#IND00,-1.#IND00,-1.#IND00,-1.#IND00,-1.#IND00
12098029582,-1.#IND00,-1.#IND00,-1.#IND00,-1.#IND00,-1.#IND00,-1.#IND00
12098031377,-1.#IND00,-1.#IND00,-1.#IND00,-1.#IND00,-1.#IND00,-1.#IND00
12098032360,-1.#IND00,-1.#IND00,-1.#IND00,-1.#IND00,-1.#IND00,-1.#IND00
12098036112,-1.#IND00,-1.#IND00,-1.#IND00,-1.#IND00,-1.#IND00,-1.#IND00
12098092954,-1.#IND00,-1.#IND00,-1.#IND00,-1.#IND00,-1.#IND00,-1.#IND00
12098093979,-1.#IND00,-1.#IND00,-1.#IND00,-1.#IND00,-1.#IND00,-1.#IND00
12098028860,-1.#IND00,-1.#IND00,-1.#IND00,-1.#IND00,-1.#IND00,-1.#IND00
12098017984,-1.#IND00,-1.#IND00,-1.#IND00,-1.#IND00,-1.#IND00,-1.#IND00
12112196215,-1.#IND00,-1.#IND00,-1.#IND00,-1.#IND00,-1.#IND00,-1.#IND00
12112192477,-1.#IND00,-1.#IND00,-1.#IND00,-1.#IND00,-1.#IND00,-1.#IND00
12112193490,-1.#IND00,-1.#IND00,-1.#IND00,-1.#IND00,-1.#IND00,-1.#IND00
12112189510,-1.#IND00,-1.#IND00,-1.#IND00,-1.#IND00,-1.#IND00,-1.#IND00
12112189434,-1.#IND00,-1.#IND00,-1.#IND00,-1.#IND00,-1.#IND00,-1.#IND00
12112187647,-1.#IND00,-1.#IND00,-1.#IND00,-1.#IND00,-1.#IND00,-1.#IND00
12112188706,-1.#IND00,-1.#IND00,-1.#IND00,-1.#IND00,-1.#IND00,-1.#IND00
12112188849,-1.#IND00,-1.#IND00,-1.#IND00,-1.#IND00,-1.#IND00,-1.#IND00
12112185892,-1.#IND00,-1.#IND00,-1.#IND00,-1.#IND00,-1.#IND00,-1.#IND00
12112181755,-1.#IND00,-1.#IND00,-1.#IND00,-1.#IND00,-1.#IND00,-1.#IND00
12112184611,-1.#IND00,-1.#IND00,-1.#IND00,-1.#IND00,-1.#IND00,-1.#IND00
12112183653,-1.#IND00,-1.#IND00,-1.#IND00,-1.#IND00,-1.#IND00,-1.#IND00
12112182651,-1.#IND00,-1.#IND00,-1.#IND00,-1.#IND00,-1.#IND00,-1.#IND00
12112182514,-1.#IND00,-1.#IND00,-1.#IND00,-1.#IND00,-1.#IND00,-1.#IND00
12112120068,-1.#IND00,-1.#IND00,-1.#IND00,-1.#IND00,-1.#IND00,-1.#IND00
12111179153,-1.#IND00,-1.#IND00,-1.#IND00,-1.#IND00,-1.#IND00,-1.#IND00
12111175752,-1.#IND00,-1.#IND00,-1.#IND00,-1.#IND00,-1.#IND00,-1.#IND00
12111117014,-1.#IND00,-1.#IND00,-1.#IND00,-1.#IND00,-1.#IND00,-1.#IND00
12111057242,-1.#IND00,-1.#IND00,-1.#IND00,-1.#IND00,-1.#IND00,-1.#IND00
12126174225,-1.#IND00,-1.#IND00,-1.#IND00,-1.#IND00,-1.#IND00,-1.#IND00
12112004055,-1.#IND00,-1.#IND00,-1.#IND00,-1.#IND00,-1.#IND00,-1.#IND00
12111118329,-1.#IND00,-1.#IND00,-1.#IND00,-1.#IND00,-1.#IND00,-1.#IND00
12111179379,-1.#IND00,-1.#IND00,-1.#IND00,-1.#IND00,-1.#IND00,-1.#IND00
12112122451,-1.#IND00,-1.#IND00,-1.#IND00,-1.#IND00,-1.#IND00,-1.#IND00
12111177730,-1.#IND00,-1.#IND00,-1.#IND00,-1.#IND00,-1.#IND00,-1.#IND00
12111168271,-1.#IND00,-1.#IND00,-1.#IND00,-1.#IND00,-1.#IND00,-1.#IND00
12111164040,-1.#IND00,-1.#IND00,-1.#IND00,-1.#IND00,-1.#IND00,-1.#IND00
12111156260,-1.#IND00,-1.#IND00,-1.#IND00,-1.#IND00,-1.#IND00,-1.#IND00
12111150478,-1.#IND00,-1.#IND00,-1.#IND00,-1.#IND00,-1.#IND00,-1.#IND00
12111145479,-1.#IND00,-1.#IND00,-1.#IND00,-1.#IND00,-1.#IND00,-1.#IND00
12111143453,-1.#IND00,-1.#IND00,-1.#IND00,-1.#IND00,-1.#IND00,-1.#IND00
12111144588,-1.#IND00,-1.#IND00,-1.#IND00,-1.#IND00,-1.#IND00,-1.#IND00
12111195238,-1.#IND00,-1.#IND00,-1.#IND00,-1.#IND00,-1.#IND00,-1.#IND00
12097006389,-1.#IND00,-1.#IND00,-1.#IND00,-1.#IND00,-1.#IND00,-1.#IND00
12111139713,-1.#IND00,-1.#IND00,-1.#IND00,-1.#IND00,-1.#IND00,-1.#IND00
12111138628,-1.#IND00,-1.#IND00,-1.#IND00,-1.#IND00,-1.#IND00,-1.#IND00
12111136989,-1.#IND00,-1.#IND00,-1.#IND00,-1.#IND00,-1.#IND00,-1.#IND00
12111075109,-1.#IND00,-1.#IND00,-1.#IND00,-1.#IND00,-1.#IND00,-1.#IND00
12111072127,-1.#IND00,-1.#IND00,-1.#IND00,-1.#IND00,-1.#IND00,-1.#IND00
12111074249,-1.#IND00,-1.#IND00,-1.#IND00,-1.#IND00,-1.#IND00,-1.#IND00
12111072266,-1.#IND00,-1.#IND00,-1.#IND00,-1.#IND00,-1.#IND00,-1.#IND00
12111072168,-1.#IND00,-1.#IND00,-1.#IND00,-1.#IND00,-1.#IND00,-1.#IND00
12111076479,-1.#IND00,-1.#IND00,-1.#IND00,-1.#IND00,-1.#IND00,-1.#IND00
12111076425,-1.#IND00,-1.#IND00,-1.#IND00,-1.#IND00,-1.#IND00,-1.#IND00
12111076084,-1.#IND00,-1.#IND00,-1.#IND00,-1.#IND00,-1.#IND00,-1.#IND00
12111077140,-1.#IND00,-1.#IND00,-1.#IND00,-1.#IND00,-1.#IND00,-1.#IND00
12111070175,-1.#IND00,-1.#IND00,-1.#IND00,-1.#IND00,-1.#IND00,-1.#IND00
12111071176,-1.#IND00,-1.#IND00,-1.#IND00,-1.#IND00,-1.#IND00,-1.#IND00
12111070493,-1.#IND00,-1.#IND00,-1.#IND00,-1.#IND00,-1.#IND00,-1.#IND00
12111068141,-1.#IND00,-1.#IND00,-1.#IND00,-1.#IND00,-1.#IND00,-1.#IND00
12111069262,-1.#IND00,-1.#IND00,-1.#IND00,-1.#IND00,-1.#IND00,-1.#IND00
12111068131,-1.#IND00,-1.#IND00,-1.#IND00,-1.#IND00,-1.#IND00,-1.#IND00
12111069203,-1.#IND00,-1.#IND00,-1.#IND00,-1.#IND00,-1.#IND00,-1.#IND00
12111079086,-1.#IND00,-1.#IND00,-1.#IND00,-1.#IND00,-1.#IND00,-1.#IND00
12111135284,-1.#IND00,-1.#IND00,-1.#IND00,-1.#IND00,-1.#IND00,-1.#IND00
12111135150,-1.#IND00,-1.#IND00,-1.#IND00,-1.#IND00,-1.#IND00,-1.#IND00
12111095440,-1.#IND00,-1.#IND00,-1.#IND00,-1.#IND00,-1.#IND00,-1.#IND00
12111094657,-1.#IND00,-1.#IND00,-1.#IND00,-1.#IND00,-1.#IND00,-1.#IND00
12111154073,-1.#IND00,-1.#IND00,-1.#IND00,-1.#IND00,-1.#IND00,-1.#IND00
12111155161,-1.#IND00,-1.#IND00,-1.#IND00,-1.#IND00,-1.#IND00,-1.#IND00
12111156142,-1.#IND00,-1.#IND00,-1.#IND00,-1.#IND00,-1.#IND00,-1.#IND00
12111217602,-1.#IND00,-1.#IND00,-1.#IND00,-1.#IND00,-1.#IND00,-1.#IND00
12111153139,-1.#IND00,-1.#IND00,-1.#IND00,-1.#IND00,-1.#IND00,-1.#IND00
12111203192,-1.#IND00,-1.#IND00,-1.#IND00,-1.#IND00,-1.#IND00,-1.#IND00
12111219824,-1.#IND00,-1.#IND00,-1.#IND00,-1.#IND00,-1.#IND00,-1.#IND00
12111219940,-1.#IND00,-1.#IND00,-1.#IND00,-1.#IND00,-1.#IND00,-1.#IND00
12111177004,-1.#IND00,-1.#IND00,-1.#IND00,-1.#IND00,-1.#IND00,-1.#IND00
12112180932,-1.#IND00,-1.#IND00,-1.#IND00,-1.#IND00,-1.#IND00,-1.#IND00
12098016955,-1.#IND00,-1.#IND00,-1.#IND00,-1.#IND00,-1.#IND00,-1.#IND00
12098015810,-1.#IND00,-1.#IND00,-1.#IND00,-1.#IND00,-1.#IND00,-1.#IND00
12098015765,-1.#IND00,-1.#IND00,-1.#IND00,-1.#IND00,-1.#IND00,-1.#IND00
12112194252,-1.#IND00,-1.#IND00,-1.#IND00,-1.#IND00,-1.#IND00,-1.#IND00
12112194223,-1.#IND00,-1.#IND00,-1.#IND00,-1.#IND00,-1.#IND00,-1.#IND00
CAP12,-1.#IND00,-1.#IND00,-1.#IND00,-1.#IND00,-1.#IND00,-1.#IND00
12112158185,-1.#IND00,-1.#IND00,-1.#IND00,-1.#IND00,-1.#IND00,-1.#IND00
12112160058,-1.#IND00,-1.#IND00,-1.#IND00,-1.#IND00,-1.#IND00,-1.#IND00
12112239894,-1.#IND00,-1.#IND00,-1.#IND00,-1.#IND00,-1.#IND00,-1.#IND00
12112239865,-1.#IND00,-1.#IND00,-1.#IND00,-1.#IND00,-1.#IND00,-1.#IND00
12113185753,-1.#IND00,-1.#IND00,-1.#IND00,-1.#IND00,-1.#IND00,-1.#IND00
12113188385,-1.#IND00,-1.#IND00,-1.#IND00,-1.#IND00,-1.#IND00,-1.#IND00
12113188607,-1.#IND00,-1.#IND00,-1.#IND00,-1.#IND00,-1.#IND00,-1.#IND00
12113124373,-1.#IND00,-1.#IND00,-1.#IND00,-1.#IND00,-1.#IND00,-1.#IND00
12128194076,-1.#IND00,-1.#IND00,-1.#IND00,-1.#IND00,-1.#IND00,-1.#IND00
12143182808,-1.#IND00,-1.#IND00,-1.#IND00,-1.#IND00,-1.#IND00,-1.#IND00
12143122066,-1.#IND00,-1.#IND00,-1.#IND00,-1.#IND00,-1.#IND00,-1.#IND00
12143186501,-1.#IND00,-1.#IND00,-1.#IND00,-1.#IND00,-1.#IND00,-1.#IND00
12143188558,-1.#IND00,-1.#IND00,-1.#IND00,-1.#IND00,-1.#IND00,-1.#IND00
12143191317,-1.#IND00,-1.#IND00,-1.#IND00,-1.#IND00,-1.#IND00,-1.#IND00
12143191133,-1.#IND00,-1.#IND00,-1.#IND00,-1.#IND00,-1.#IND00,-1.#IND00
12128017522,-1.#IND00,-1.#IND00,-1.#IND00,-1.#IND00,-1.#IND00,-1.#IND00
12128016488,-1.#IND00,-1.#IND00,-1.#IND00,-1.#IND00,-1.#IND00,-1.#IND00
12128016479,-1.#IND00,-1.#IND00,-1.#IND00,-1.#IND00,-1.#IND00,-1.#IND00
12128019447,-1.#IND00,-1.#IND00,-1.#IND00,-1.#IND00,-1.#IND00,-1.#IND00
12128018574,-1.#IND00,-1.#IND00,-1.#IND00,-1.#IND00,-1.#IND00,-1.#IND00
12128022274,-1.#IND00,-1.#IND00,-1.#IND00,-1.#IND00,-1.#IND00,-1.#IND00
12128023720,-1.#IND00,-1.#IND00,-1.#IND00,-1.#IND00,-1.#IND00,-1.#IND00
12128023990,-1.#IND00,-1.#IND00,-1.#IND00,-1.#IND00,-1.#IND00,-1.#IND00
12143201050,-1.#IND00,-1.#IND00,-1.#IND00,-1.#IND00,-1.#IND00,-1.#IND00
12143204435,-1.#IND00,-1.#IND00,-1.#IND00,-1.#IND00,-1.#IND00,-1.#IND00
12143205433,-1.#IND00,-1.#IND00,-1.#IND00,-1.#IND00,-1.#IND00,-1.#IND00
12143202646,-1.#IND00,-1.#IND00,-1.#IND00,-1.#IND00,-1.#IND00,-1.#IND00
12143202661,-1.#IND00,-1.#IND00,-1.#IND00,-1.#IND00,-1.#IND00,-1.#IND00
12143201526,-1.#IND00,-1.#IND00,-1.#IND00,-1.#IND00,-1.#IND00,-1.#IND00
12143199873,-1.#IND00,-1.#IND00,-1.#IND00,-1.#IND00,-1.#IND00,-1.#IND00
12143205151,-1.#IND00,-1.#IND00,-1.#IND00,-1.#IND00,-1.#IND00,-1.#IND00
12143207203,-1.#IND00,-1.#IND00,-1.#IND00,-1.#IND00,-1.#IND00,-1.#IND00
12143206147,-1.#IND00,-1.#IND00,-1.#IND00,-1.#IND00,-1.#IND00,-1.#IND00
12128025742,-1.#IND00,-1.#IND00,-1.#IND00,-1.#IND00,-1.#IND00,-1.#IND00
12128021562,-1.#IND00,-1.#IND00,-1.#IND00,-1.#IND00,-1.#IND00,-1.#IND00
12128020496,-1.#IND00,-1.#IND00,-1.#IND00,-1.#IND00,-1.#IND00,-1.#IND00
12128021328,-1.#IND00,-1.#IND00,-1.#IND00,-1.#IND00,-1.#IND00,-1.#IND00
12128086821,-1.#IND00,-1.#IND00,-1.#IND00,-1.#IND00,-1.#IND00,-1.#IND00
12128089266,-1.#IND00,-1.#IND00,-1.#IND00,-1.#IND00,-1.#IND00,-1.#IND00
12128150919,-1.#IND00,-1.#IND00,-1.#IND00,-1.#IND00,-1.#IND00,-1.#IND00
12128151905,-1.#IND00,-1.#IND00,-1.#IND00,-1.#IND00,-1.#IND00,-1.#IND00
12128156930,-1.#IND00,-1.#IND00,-1.#IND00,-1.#IND00,-1.#IND00,-1.#IND00
12143184772,-1.#IND00,-1.#IND00,-1.#IND00,-1.#IND00,-1.#IND00,-1.#IND00
12143183822,-1.#IND00,-1.#IND00,-1.#IND00,-1.#IND00,-1.#IND00,-1.#IND00
12142164868,-1.#IND00,-1.#IND00,-1.#IND00,-1.#IND00,-1.#IND00,-1.#IND00
12158230664,-1.#IND00,-1.#IND00,-1.#IND00,-1.#IND00,-1.#IND00,-1.#IND00
12175188481,-1.#IND00,-1.#IND00,-1.#IND00,-1.#IND00,-1.#IND00,-1.#IND00
12159009936,-1.#IND00,-1.#IND00,-1.#IND00,-1.#IND00,-1.#IND00,-1.#IND00
12159014983,-1.#IND00,-1.#IND00,-1.#IND00,-1.#IND00,-1.#IND00,-1.#IND00
node83698370,-1.#IND00,-1.#IND00,-1.#IND00,-1.#IND00,-1.#IND00,-1.#IND00
node682668369,-1.#IND00,-1.#IND00,-1.#IND00,-1.#IND00,-1.#IND00,-1.#IND00
node6826768266,-1.#IND00,-1.#IND00,-1.#IND00,-1.#IND00,-1.#IND00,-1.#IND00
node6826568264,-1.#IND00,-1.#IND00,-1.#IND00,-1.#IND00,-1.#IND00,-1.#IND00
node6826368262,-1.#IND00,-1.#IND00,-1.#IND00,-1.#IND00,-1.#IND00,-1.#IND00
nodeR139868263,-1.#IND00,-1.#IND00,-1.#IND00,-1.#IND00,-1.#IND00,-1.#IND00
node8586R1398,-1.#IND00,-1.#IND00,-1.#IND00,-1.#IND00,-1.#IND00,-1.#IND00
node85808586,-1.#IND00,-1.#IND00,-1.#IND00,-1.#IND00,-1.#IND00,-1.#IND00
node82588580,-1.#IND00,-1.#IND00,-1.#IND00,-1.#IND00,-1.#IND00,-1.#IND00
node85408258,-1.#IND00,-1.#IND00,-1.#IND00,-1.#IND00,-1.#IND00,-1.#IND00
node84948540,-1.#IND00,-1.#IND00,-1.#IND00,-1.#IND00,-1.#IND00,-1.#IND00
node81958494,-1.#IND00,-1.#IND00,-1.#IND00,-1.#IND00,-1.#IND00,-1.#IND00
node81948195,-1.#IND00,-1.#IND00,-1.#IND00,-1.#IND00,-1.#IND00,-1.#IND00
node81858194,-1.#IND00,-1.#IND00,-1.#IND00,-1.#IND00,-1.#IND00,-1.#IND00
node83378185,-1.#IND00,-1.#IND00,-1.#IND00,-1.#IND00,-1.#IND00,-1.#IND00
node82308337,-1.#IND00,-1.#IND00,-1.#IND00,-1.#IND00,-1.#IND00,-1.#IND00
node73548230,-1.#IND00,-1.#IND00,-1.#IND00,-1.#IND00,-1.#IND00,-1.#IND00
node81087354,-1.#IND00,-1.#IND00,-1.#IND00,-1.#IND00,-1.#IND00,-1.#IND00
node80688108,-1.#IND00,-1.#IND00,-1.#IND00,-1.#IND00,-1.#IND00,-1.#IND00
node79418068,-1.#IND00,-1.#IND00,-1.#IND00,-1.#IND00,-1.#IND00,-1.#IND00
node74767941,-1.#IND00,-1.#IND00,-1.#IND00,-1.#IND00,-1.#IND00,-1.#IND00
node77527476,-1.#IND00,-1.#IND00,-1.#IND00,-1.#IND00,-1.#IND00,-1.#IND00
node77337752,-1.#IND00,-1.#IND00,-1.#IND00,-1.#IND00,-1.#IND00,-1.#IND00
node73097733,-1.#IND00,-1.#IND00,-1.#IND00,-1.#IND00,-1.#IND00,-1.#IND00
node72137309,-1.#IND00,-1.#IND00,-1.#IND00,-1.#IND00,-1.#IND00,-1.#IND00
node75267213,-1.#IND00,-1.#IND00,-1.#IND00,-1.#IND00,-1.#IND00,-1.#IND00
node65167526,-1.#IND00,-1.#IND00,-1.#IND00,-1.#IND00,-1.#IND00,-1.#IND00
nodeT121752020386516,-1.#IND00,-1.#IND00,-1.#IND00,-1.#IND00,-1.#IND00,-1.#IND00
node12175202046T12175202038,0.000000,0.000000,0.000000,0.000000,-1.#IND00,-1.#IND00
...